99

C          5.83578       -0.89296        7.79070
C          5.18695       -0.55263        8.94578
S          4.89167       -1.96276        9.90662
C          5.63441       -3.00228        8.75159
C          6.05505       -2.27634        7.67067
C          6.69856       -2.63293        6.43784
O          7.21052       -3.70438        6.19544
C          6.64717       -1.32734        5.62054
C          6.38201       -0.21935        6.63878
C          6.78527        1.07299        6.60209
C          6.62055        1.94682        7.71757
N          6.50169        2.65930        8.63154
C          7.47606        1.60686        5.48456
N          8.00915        2.01604        4.53798
C          6.65668       -1.21414        4.26499
C          6.76113       -2.24226        3.18684
C          6.83930       -3.69167        3.52881
C          8.08034       -4.34143        3.62601
C          8.14905       -5.69894        3.92196
C          6.98298       -6.42891        4.11108
C          5.74656       -5.80197        4.02403
C          5.67368       -4.44177        3.74425
F          4.47363       -3.84306        3.68729
F          4.62142       -6.50633        4.21015
F          7.04993       -7.74032        4.38032
F          9.34242       -6.30048        4.02736
F          9.21513       -3.64445        3.45613
C          6.77020       -1.96482        1.83734
C          6.75850       -0.60577        1.21683
C          7.97251        0.06179        1.01109
C          8.04512        1.19919        0.20848
C          6.90773        1.68408       -0.41968
C          5.69681        1.03052       -0.24819
C          5.62078       -0.10339        0.56317
F          4.44719       -0.74587        0.65891
F          4.60816        1.46467       -0.89989
F          6.98539        2.76005       -1.21548
F          9.22846        1.79158       -0.00221
F          9.10462       -0.44945        1.51769
C          6.90238       -3.05444        0.88378
S          5.48241       -3.86610        0.28515
C          6.41491       -4.78506       -0.73025
C          7.77299       -4.56332       -0.65662
C          8.06239       -3.52827        0.26123
C          8.53973       -5.43481       -1.67417
C          9.42417       -4.60616       -2.60336
C          9.34675       -6.52987       -0.96818
C          7.32612       -6.03778       -2.40141
C          6.14823       -5.68071       -1.78397
S          4.77694       -6.27196       -2.48404
C          5.70390       -6.94307       -3.80440
C          7.07523       -6.78065       -3.57967
C          5.07556       -7.51497       -4.95251
C          3.74205       -7.56669       -5.09980
C          3.06677       -8.05807       -6.28975
C          3.50894       -7.88308       -7.61619
C          2.75748       -8.30561       -8.74053
C          1.49236       -8.91963       -8.63424
C          1.04271       -9.13697       -7.30497
C          1.80957       -8.68876       -6.15089
N          1.10816       -8.98128       -5.04523
O         -0.03022       -9.62765       -5.47086
N         -0.06736       -9.73589       -6.84454
C          0.74432       -9.36539       -9.81026
C         -0.58398       -9.39700       -9.99339
C         -1.10658      -10.33647      -11.03852
O         -0.54492      -10.72917      -12.03856
C         -2.41715      -10.77657      -10.52471
C         -2.75318      -10.05289       -9.36472
C         -1.73151       -8.99341       -9.17561
C         -1.91107       -7.80244       -8.55575
C         -0.93713       -6.76242       -8.62755
N         -0.14440       -5.91710       -8.68964
C         -3.10581       -7.48024       -7.85168
N         -4.08222       -7.22578       -7.27783
C         -3.84685      -10.45292       -8.61348
C         -4.61839      -11.52971       -9.07289
C         -4.28844      -12.19793      -10.26445
C         -3.16957      -11.83437      -11.00529
Br        -5.36206      -13.64029      -10.84776
H          4.86077        0.40944        9.31802
H          5.70440       -4.06958        8.92005
H          6.51028       -0.21726        3.85415
H          9.04822       -3.11973        0.45206
H         10.23062       -4.11639       -2.04549
H          8.85526       -3.82249       -3.11685
H          9.88581       -5.23497       -3.37390
H         10.13654       -6.09974       -0.34258
H          9.81573       -7.20485       -1.69365
H          8.71213       -7.14443       -0.31731
H          7.83516       -7.12238       -4.27225
H          5.72834       -7.87950       -5.74127
H          3.06539       -7.22757       -4.31885
H          4.45711       -7.37717       -7.80035
H          3.17844       -8.12003       -9.73005
H          1.38134       -9.80604      -10.58023
H         -4.10903       -9.98705       -7.66815
H         -5.47535      -11.85302       -8.48405
H         -2.86569      -12.36938      -11.89944
