99

C          4.41056        1.00685        5.03617
C          4.49312        1.54078        6.29309
S          6.01345        2.33913        6.49897
C          6.53679        1.94454        4.90204
C          5.58222        1.20309        4.26233
C          5.50873        0.55901        2.97405
O          6.25606        0.67991        2.02830
C          4.24110       -0.27547        3.11211
C          3.44511        0.27706        4.26239
C          2.10331        0.27855        4.43054
C          1.47807        0.92290        5.53974
N          0.98120        1.43358        6.44896
C          1.23399       -0.26762        3.44592
N          0.55318       -0.70967        2.61272
C          4.02977       -1.43360        2.45783
C          4.86339       -2.09298        1.43405
C          4.34874       -2.01873        0.03314
C          3.36473       -2.91866       -0.39665
C          2.86714       -2.87130       -1.69615
C          3.34484       -1.92528       -2.59041
C          4.30543       -1.01352       -2.18157
C          4.79242       -1.04990       -0.87728
F          5.70105       -0.13826       -0.50907
F          4.76093       -0.09200       -3.04180
F          2.87276       -1.88846       -3.84426
F          1.92518       -3.74283       -2.08296
F          2.88274       -3.83917        0.45312
C          5.96089       -2.86451        1.73039
C          6.39224       -3.03601        3.14498
C          5.83444       -4.02765        3.96282
C          6.28498       -4.22043        5.26758
C          7.26353       -3.39241        5.79576
C          7.79903       -2.37896        5.01798
C          7.38428       -2.21772        3.69870
F          7.93515       -1.23702        2.97249
F          8.70464       -1.54030        5.54044
F          7.67404       -3.55687        7.06089
F          5.75537       -5.19379        6.02198
F          4.83571       -4.79794        3.50464
C          6.67945       -3.53766        0.65964
S          7.82896       -2.65391       -0.27419
C          8.06040       -3.93265       -1.41165
C          7.21391       -4.99234       -1.09906
C          6.75071       -4.87700        0.27424
C          6.33280       -6.10364        1.05122
N          7.32006       -6.25874        2.12883
C          6.35384       -7.40071        0.21008
C          5.89216       -7.14592       -1.21924
C          6.91484       -6.23431       -1.91273
N          6.38140       -5.83398       -3.21352
C          9.01981       -3.71093       -2.45162
C          9.38792       -4.66156       -3.32480
C         10.34296       -4.52756       -4.41790
C         10.20557       -5.27602       -5.60855
C         11.10810       -5.18238       -6.69665
C         12.23966       -4.34230       -6.68428
C         12.39185       -3.57087       -5.49903
C         11.47087       -3.68367       -4.37072
N         11.92323       -2.89119       -3.38822
O         13.03597       -2.25481       -3.88267
N         13.30873       -2.64584       -5.17361
C         13.11397       -4.20092       -7.85551
C         14.42361       -3.90913       -7.89404
C         14.96970       -3.29650       -9.15059
O         14.57257       -3.44153      -10.28655
C         16.03007       -2.37718       -8.68724
C         16.22623       -2.52464       -7.30038
C         15.42674       -3.68760       -6.85172
C         15.70728       -4.50599       -5.81043
C         15.02100       -5.74271       -5.62568
N         14.46946       -6.75491       -5.48829
C         16.73847       -4.22072       -4.87276
N         17.57494       -3.97528       -4.10637
C         17.01648       -1.60892       -6.62518
C         17.66375       -0.61047       -7.36447
C         17.50737       -0.53114       -8.75923
C         16.66853       -1.40806       -9.44090
Br        18.42827        0.81298       -9.71843
H          3.78684        1.52482        7.11203
H          7.50878        2.25136        4.54296
H          3.13601       -2.01974        2.67341
H          5.33141       -5.96486        1.46744
H          8.25525       -6.22349        1.71422
H          7.24344       -7.19523        2.52516
H          5.72436       -8.16320        0.68362
H          7.36681       -7.82917        0.16608
H          4.89020       -6.69741       -1.21034
H          5.81680       -8.09609       -1.76313
H          7.83688       -6.81113       -2.04434
H          5.55570       -5.25293       -3.08049
H          6.07218       -6.65414       -3.73101
H          9.47900       -2.72567       -2.50244
H          8.94342       -5.64431       -3.30433
H          9.35262       -5.95018       -5.71075
H         10.90294       -5.79236       -7.57864
H         12.57128       -4.24200       -8.80211
H         17.12725       -1.61915       -5.54466
H         18.28629        0.11294       -6.84063
H         16.49144       -1.32831      -10.50836
