147

C         -0.67431        0.40117       -1.33736
C          0.23955        0.05567       -0.39934
C          1.22284       -0.95385       -0.62066
N          2.01931       -1.77502       -0.80112
C          0.33608        0.72673        0.85679
N          0.40547        1.27499        1.87491
C         -0.77752       -0.12794       -2.72989
C         -1.52284        0.78688       -3.48465
C         -1.87005        0.60270       -4.81586
C         -1.44038       -0.58430       -5.44588
C         -0.67908       -1.50278       -4.70908
C         -0.34177       -1.29755       -3.34479
S         -0.24595       -2.86419       -5.68050
C         -1.07354       -2.25868       -7.04202
C         -1.67417       -1.05032       -6.78331
C         -1.94836        1.92192       -2.65904
O         -2.38827        2.97070       -3.07162
C         -1.65279        1.50620       -1.24263
C         -2.36411        1.94416       -0.19262
C         -3.46939        2.90620       -0.25526
C         -3.22149        4.27697       -0.10308
C         -4.30516        5.14873       -0.11439
C         -5.62446        4.67033       -0.28068
C         -5.87069        3.31988       -0.45442
C         -4.78648        2.43706       -0.44042
C         -6.55041        5.77712       -0.18718
C         -5.83424        6.96464        0.04393
C         -4.32505        6.67595        0.03094
C         -3.64945        7.16565        1.34477
C         -4.15024        6.53060        2.64512
C         -3.65704        7.35835       -1.20377
C         -4.15336        6.90043       -2.58112
C         -6.49309        8.17288        0.26346
C         -7.90186        8.21726        0.26246
C         -8.59363        7.01069       -0.01896
C         -7.92924        5.79745       -0.24892
C         -8.63400        9.48101        0.55408
C         -8.10992       10.45077        1.44147
C         -8.81191       11.63182        1.68247
C        -10.05421       11.86414        1.06337
C        -10.60160       10.92825        0.20617
C         -9.88907        9.75009       -0.04611
C        -10.57850       13.13460        1.50248
C         -9.68508       13.71750        2.41695
C         -8.45014       12.82110        2.60609
C         -8.27655       12.35658        4.07839
C         -9.43318       11.53878        4.66315
C         -7.16279       13.51028        2.05107
C         -6.73582       14.83706        2.68214
C         -9.98577       14.93610        3.01880
C        -11.18405       15.61160        2.70677
C        -12.05394       15.00072        1.77331
C        -11.75912       13.77169        1.17023
C        -11.51486       16.91830        3.33380
C        -12.27057       17.89385        2.65031
C        -12.51553       19.12509        3.25190
C        -12.04354       19.40626        4.54655
C        -11.31626       18.46694        5.24696
C        -11.05730       17.23476        4.63844
C        -12.37539       20.76674        4.89687
C        -13.02165       21.38472        3.80307
C        -13.24323       20.35181        2.68549
C        -12.63257       20.81500        1.32955
C        -11.11806       21.03065        1.29872
C        -14.76351       20.04727        2.51010
C        -15.47185       19.45118        3.73249
C        -13.31771       22.74278        3.83023
C        -12.93423       23.47943        4.96065
C        -12.37644       22.83722        6.08429
C        -12.09211       21.47209        6.05450
C        -13.13017       24.92273        5.01654
C        -12.33385       25.93764        4.64409
C        -11.01615       26.16026        4.00089
C        -10.03765       25.27959        3.67169
C         -8.82418       25.65950        3.02628
N         -7.82628       25.94329        2.49846
C        -10.02828       23.88963        3.95902
N         -9.81555       22.76882        4.15855
C        -10.87742       27.65888        3.83957
C        -11.97846       28.28239        4.42348
C        -12.93085       27.29289        4.91936
O        -13.99228       27.55566        5.44909
C        -12.14009       29.66175        4.54177
C        -11.11503       30.49037        4.03972
C        -10.01888       29.88689        3.41665
C         -9.89090       28.47828        3.29427
S         -8.88779       31.06469        2.85740
C         -9.81847       32.35559        3.46423
C        -10.97819       31.91931        4.05997
H         -2.47504        1.33887       -5.33697
H          0.22246       -2.06586       -2.82535
H         -1.08540       -2.81572       -7.96960
H         -2.25637       -0.51033       -7.52081
H         -2.23149        1.52298        0.80353
H         -2.21071        4.64949        0.02488
H         -6.88140        2.94735       -0.58268
H         -4.98120        1.37424       -0.56415
H         -3.77997        8.25209        1.43776
H         -2.56675        6.99449        1.29000
H         -5.23321        6.62671        2.76541
H         -3.68248        7.02769        3.50296
H         -3.88632        5.47030        2.70390
H         -2.57252        7.18944       -1.17604
H         -3.80076        8.44522       -1.14241
H         -3.84487        5.87203       -2.79575
H         -3.72486        7.53479       -3.36485
H         -5.24160        6.96150       -2.67343
H         -5.90965        9.07105        0.44193
H         -9.68141        6.99117       -0.03602
H         -8.49596        4.89420       -0.44685
H         -7.17065       10.27814        1.95851
H        -11.56431       11.09258       -0.26590
H        -10.33360        9.03682       -0.73740
H         -8.12609       13.22670        4.72858
H         -7.36801       11.74597        4.16461
H        -10.38721       12.06995        4.59847
H         -9.24417       11.32947        5.72193
H         -9.54015       10.57227        4.16057
H         -7.28055       13.69479        0.97432
H         -6.31693       12.81630        2.14451
H         -7.42819       15.64603        2.43211
H         -5.76233       15.14239        2.28099
H         -6.64023       14.77446        3.76935
H         -9.27697       15.36822        3.71797
H        -12.99751       15.47393        1.51187
H        -12.45465       13.33325        0.46308
H        -12.63764       17.71558        1.64437
H        -10.92524       18.68171        6.23513
H        -10.47581       16.51389        5.20866
H        -13.10778       21.75229        1.01159
H        -12.86734       20.07529        0.55365
H        -10.81913       21.85219        1.94880
H        -10.79793       21.29421        0.28453
H        -10.56195       20.13466        1.58957
H        -14.90334       19.34249        1.67922
H        -15.29380       20.96581        2.22657
H        -15.10862       18.44180        3.95238
H        -16.54769       19.37042        3.54393
H        -15.34145       20.06767        4.62642
H        -13.80852       23.22383        2.99043
H        -12.11672       23.40617        6.97452
H        -11.60711       20.99494        6.89856
H        -14.09665       25.15572        5.47286
H        -13.01830       30.07746        5.02879
H         -9.00658       28.10872        2.79346
H         -9.47280       33.37434        3.35344
H        -11.70094       32.59340        4.50352
