122

C          1.10634       -0.27711        3.76312
C          2.18983       -0.88160        4.45265
C          2.22506       -2.24733        4.90283
N          2.35559       -3.32411        5.30864
C          3.43267       -0.39324        4.97172
N          4.46115       -0.26961        5.49427
C         -0.27308       -0.78407        4.15538
C         -1.28172        0.06330        3.75504
C         -2.61803       -0.10887        4.16649
C         -2.95414       -1.15836        5.06023
C         -1.92051       -2.04207        5.48789
C         -0.62346       -1.83015        5.02038
C         -2.05630       -3.16002        6.48134
O         -2.90619       -3.13572        7.35864
O         -1.18289       -4.20268        6.41306
C         -1.21857       -5.30704        7.23420
C         -4.37068       -1.28033        5.51123
O         -4.83655       -2.36813        5.82236
O         -5.14005       -0.16225        5.59655
C         -6.45815       -0.16193        6.00841
C         -0.72255        1.13606        2.96886
O         -1.39652        2.00894        2.43348
C          0.76921        1.00959        2.91705
C          1.43409        1.92976        2.11829
C          2.86189        2.02623        1.67943
C          3.46864        3.24790        1.30255
C          4.82790        3.28765        0.86646
C          5.59538        2.10536        0.79506
C          4.95699        0.96707        1.13784
C          3.67172        0.92626        1.55338
N          3.36208       -0.33943        1.77160
O          4.44856       -1.00843        1.49944
N          5.43945       -0.26803        1.10138
C          6.98155        2.03195        0.34334
C          7.98145        1.06442        0.66026
C          9.17486        1.34404       -0.02708
C          9.00004        2.43044       -0.81460
S          7.53020        3.15002       -0.74692
C         10.05822        2.83279       -1.60315
C         11.18098        2.09013       -1.54957
Ge        10.99648        0.60313       -0.26286
C         11.00043       -1.23792        0.43917
C         12.79321        1.05888        0.36587
C         12.19023        2.68192       -2.32442
C         11.73036        3.89057       -2.90091
S         10.13399        4.19034       -2.52623
C         12.46866        4.87769       -3.66787
C         12.18156        6.23757       -3.71105
C         13.06779        6.97875       -4.52389
C         14.02974        6.17812       -5.14089
S         13.77564        4.58673       -4.61279
C         15.01962        6.69540       -6.02600
O         15.92729        5.87589       -6.64370
C         16.02241        4.49208       -6.47260
C         15.01148        8.12051       -6.23247
C         14.03541        8.89882       -5.59513
C         13.03770        8.36897       -4.74170
O         12.07782        9.12523       -4.13618
C         11.54068       10.30297       -4.63041
S         14.29635       10.49020       -6.02280
C         15.63332       10.31497       -6.97078
C         15.89461        8.93962       -7.02141
C         16.40766       11.37098       -7.69519
C         16.20333       12.72712       -7.74657
C         15.17067       13.65074       -7.11183
C         14.47436       13.62518       -5.92909
C         13.30635       14.42461       -5.63629
N         12.37098       15.05092       -5.36319
C         14.95187       12.97042       -4.74590
N         15.26984       12.47456       -3.75072
C         15.40429       14.99207       -7.74339
C         16.49943       14.95403       -8.57785
C         16.98982       13.58378       -8.66738
O         17.93005       13.21861       -9.35960
C         17.05224       16.12504       -9.11809
C         16.49583       17.39235       -8.78020
C         15.36598       17.44202       -7.90330
C         14.85164       16.23673       -7.40909
C         14.71041       18.69856       -7.39053
O         15.13850       19.80142       -7.67104
O         13.60054       18.62016       -6.61201
C         12.92530       19.72669       -6.14356
C         17.14883       18.60689       -9.35036
O         16.51598       19.62353       -9.58868
O         18.46608       18.55680       -9.65178
C         19.07640       19.35355      -10.59198
H         -3.38298        0.57677        3.82183
H          0.07583       -2.47404        5.44724
H         -0.43097       -6.02006        6.91002
H         -2.20785       -5.80085        7.16411
H         -1.04967       -5.01311        8.28956
H         -6.83248        0.88004        6.06271
H         -6.56311       -0.62133        7.01883
H         -7.07317       -0.70916        5.26791
H          0.81226        2.70730        1.65131
H          2.90492        4.15725        1.37236
H          5.28513        4.22278        0.61062
H          7.83451        0.24189        1.35248
H         10.48708       -1.24385        1.42799
H         12.04023       -1.58872        0.61807
H         10.48434       -1.94774       -0.23408
H         12.96010        2.15257        0.40635
H         13.49003        0.63753       -0.39850
H         13.04023        0.58837        1.33555
H         13.20697        2.32683       -2.38371
H         11.36633        6.64423       -3.13346
H         16.57021        4.00768       -7.28793
H         15.05776        3.99931       -6.64003
H         16.39998        4.21365       -5.45626
H         10.82373       10.73553       -3.91375
H         11.02121       10.08936       -5.59000
H         12.28010       11.10548       -4.75396
H         16.71903        8.61365       -7.62205
H         17.21460       10.97371       -8.31824
H         17.92254       16.05711       -9.76305
H         14.06587       16.33169       -6.71023
H         12.03371       19.38784       -5.58188
H         12.59679       20.36393       -6.99574
H         13.58569       20.31379       -5.47039
H         20.16385       19.14265      -10.57315
H         18.91245       20.43302      -10.38927
H         18.68075       19.08526      -11.59713
