104

C         13.66880       -5.95811       -2.36495
C         12.84748       -4.94356       -1.94214
C         13.26460       -4.06817       -0.91222
N         12.36722       -3.18029       -0.43057
C         11.18747       -3.05223       -1.06463
C         10.89636       -3.78905       -2.17883
N         11.67798       -4.80304       -2.58515
C         14.60494       -4.12706       -0.47970
C         15.46553       -5.13251       -0.97632
C         14.95302       -6.08065       -1.89820
N         15.69197       -7.08315       -2.40705
C         16.97970       -7.13592       -2.02614
C         17.51531       -6.21067       -1.16063
N         16.77606       -5.21389       -0.62446
C         15.23992       -3.00627        0.31636
C         14.65786       -2.08936        1.11490
C         15.36793       -0.89879        1.58032
C         14.82254        0.23668        2.05749
C         15.56107        1.47011        2.23735
C         14.77786        2.55856        2.33254
C         13.35213        2.26309        2.31219
S         13.12926        0.50799        2.38875
C         12.33167        3.13660        2.17072
C         12.42065        4.56455        1.90746
C         11.27383        5.09702        1.44738
C         10.21265        4.11818        1.28711
S         10.62407        2.66744        2.15779
C          9.15567        4.28668        0.47134
C          8.12626        3.30800       -0.00239
C          6.74128        3.87112       -0.05272
C          5.83862        3.78859        1.01235
C          4.58954        4.41147        0.94247
C          4.24239        5.16583       -0.17010
C          5.13858        5.29716       -1.21832
C          6.37141        4.65300       -1.16174
F          7.23957        4.83577       -2.16899
F          4.83370        6.06683       -2.27234
F          3.05374        5.78383       -0.22352
F          3.72350        4.29039        1.95803
F          6.15610        3.08615        2.10842
C          8.44334        2.11893       -0.62693
C          9.90357        1.90155       -0.97841
C         10.59627        0.76495       -0.53953
C         11.91113        0.53021       -0.92798
C         12.58958        1.43881       -1.71321
C         11.94523        2.58556       -2.13438
C         10.60995        2.80050       -1.79877
F         10.01185        3.90885       -2.26252
F         12.60680        3.49040       -2.86772
F         13.86109        1.20523       -2.06542
F         12.53719       -0.57794       -0.53448
F          9.99398       -0.12524        0.26806
C          7.46289        1.06172       -0.97025
C          6.13585        0.80814       -0.63954
C          5.61804       -0.49773       -1.03592
C          6.62765       -1.27755       -1.56683
S          7.95861       -0.27664       -1.98699
C          6.47933       -2.66568       -1.75804
O          7.62192       -3.34454       -2.18410
C          7.69888       -4.74275       -1.93285
C          5.20033       -3.26080       -1.58892
C          4.12427       -2.43489       -1.22482
C          4.32859       -1.06715       -0.89453
O          3.38202       -0.17191       -0.40554
C          1.99955       -0.48333       -0.46933
S          2.66605       -3.36289       -1.25074
C          3.37976       -4.81525       -1.72226
C          4.74752       -4.62591       -1.72942
C          2.68509       -6.01254       -1.98146
C          3.30288       -7.36518       -2.09034
N          2.50823       -8.36418       -2.32775
C          1.29825       -7.75511       -2.41545
C          1.40881       -6.30683       -2.24021
C          0.03072       -5.72401       -2.41636
S         -0.52742       -4.16036       -2.46432
C         -0.80078       -6.94647       -2.60027
C          0.03644       -8.11232       -2.60884
N         -0.71026       -9.22750       -2.79732
C         -1.92134       -8.75311       -2.87859
C         -2.07277       -7.28929       -2.76346
H         13.30631       -6.65338       -3.11858
H         10.50376       -2.31182       -0.67052
H         10.02113       -3.58772       -2.77919
H         17.56998       -7.94048       -2.44791
H         18.55916       -6.23941       -0.87399
H         16.30283       -2.89013        0.09993
H         13.59545       -2.14409        1.33385
H         16.44219       -0.91021        1.39958
H         16.64251        1.50435        2.22284
H         15.17198        3.56204        2.41289
H         13.33604        5.13137        2.00857
H         11.16941        6.13047        1.14129
H          9.04395        5.26813        0.00431
H          5.51460        1.46510       -0.05275
H          8.72994       -5.08435       -2.01101
H          7.17299       -5.28543       -2.72158
H          7.37083       -5.00199       -0.92141
H          1.74663       -1.27599        0.24024
H          1.68127       -0.71186       -1.49160
H          1.44195        0.40268       -0.15195
H          5.39264       -5.46829       -1.90751
H          4.39201       -7.48442       -1.97185
H         -2.81857       -9.37107       -3.02867
H         -2.96878       -6.70541       -2.81298
