135

C         -5.18085        0.24760        1.90783
C         -5.67830        1.38169        2.52223
C         -6.36546        1.25821        3.75802
C         -6.86296        2.44857        4.37409
N         -7.25481        3.42392        4.86285
C         -6.57354       -0.00233        4.36217
C         -7.28870       -0.15094        5.59653
N         -7.86758       -0.29815        6.58965
C         -6.07821       -1.14195        3.74680
C         -5.40413       -0.97055        2.54899
C         -4.79887       -2.04786        1.80072
O         -4.47909       -3.06822        2.36635
C         -4.50419       -1.50204        0.43245
C         -4.43978       -0.03020        0.63965
C         -3.67448        0.86476       -0.05716
C         -3.52212        2.21040        0.36454
N         -3.39770        3.30145        0.73571
C         -2.92123        0.47658       -1.19602
N         -2.32328        0.15953       -2.14069
C         -4.53435       -2.20442       -0.71892
C         -4.82125       -3.60288       -0.82067
C         -5.45290       -4.26877       -1.84815
C         -5.76048       -5.67014       -1.59870
C         -6.42366       -6.67077       -2.36804
C         -6.74041       -6.40269       -3.83344
C         -6.46153       -5.31046       -4.65335
C         -6.88356       -5.42513       -6.01191
C         -7.45877       -6.63927       -6.25710
S         -7.50077       -7.57460       -4.85979
C         -7.99559       -7.19202       -7.52555
C         -6.71445       -7.91835       -1.73275
C         -6.28643       -8.24639       -0.43766
C         -5.63544       -7.24545        0.32525
C         -5.33195       -6.00982       -0.30423
S         -4.25050       -4.78855        0.24049
C         -5.26092       -7.51184        1.76538
C         -4.87688       -8.68018        2.41837
C         -4.59167       -8.52235        3.81324
C         -4.69870       -7.21300        4.21361
S         -5.37077       -6.26060        2.96938
C         -4.34777       -6.60964        5.53470
C         -6.56491       -9.64667       -0.16413
C         -7.20498      -10.34976       -1.16479
S         -7.70859       -9.20130       -2.28526
C         -7.54893      -11.79318       -1.31783
C         -8.23122      -12.36829       -2.43133
C         -8.53529      -13.77103       -2.52347
N         -9.23107      -14.22848       -3.60599
C         -9.62543      -13.38901       -4.59425
C         -9.33175      -12.05144       -4.50744
N         -8.63021      -11.56406       -3.44472
C         -9.73078      -11.07924       -5.48799
N        -10.08003      -10.33060       -6.30156
C        -10.35159      -13.94018       -5.66873
N        -10.93786      -14.36345       -6.57161
C         -8.15384      -14.70254       -1.52481
C         -7.45687      -14.17354       -0.39945
C         -7.16421      -12.70252       -0.29054
N         -6.52743      -12.40394        0.85565
S         -6.30781      -13.78965        1.70745
N         -6.97770      -14.85862        0.65464
C         -8.45187      -16.15563       -1.61468
C         -8.54214      -16.95969       -2.72981
C         -8.91666      -18.34696       -2.51042
C         -9.12967      -19.44142       -3.41112
C         -8.90580      -19.27457       -4.89459
C         -8.46483      -20.17846       -5.86049
C         -8.40788      -19.64423       -7.19134
C         -8.80490      -18.32981       -7.23477
S         -9.25412      -17.78391       -5.69528
C         -8.94414      -17.42125       -8.40980
C         -9.54009      -20.70122       -2.88934
C         -9.66704      -20.91806       -1.50630
C         -9.46170      -19.82625       -0.61643
C         -9.09421      -18.56097       -1.13504
S         -8.83429      -17.09073       -0.25782
C         -9.67518      -19.99091        0.86530
C         -9.01382      -19.41467        1.94713
C         -9.55876      -19.75822        3.22382
C        -10.63304      -20.60721        3.11325
S        -10.99206      -20.93292        1.48049
C        -11.49577      -21.15806        4.19952
C         -9.94444      -22.31331       -1.24634
C        -10.20719      -23.08669       -2.35482
S         -9.98857      -22.14768       -3.75335
C        -10.50653      -24.47886       -2.45587
C        -11.15010      -25.17979       -1.50962
C        -10.84980      -26.64764       -1.42556
O        -10.50813      -27.40165       -2.30963
C        -10.90955      -26.95865        0.01840
C        -10.42610      -28.10395        0.63108
C        -10.37195      -28.12456        2.03138
C        -10.78603      -26.99375        2.77403
C        -11.29791      -25.85174        2.12148
C        -11.38007      -25.84571        0.73636
C        -11.79840      -24.81489       -0.24655
C        -12.77294      -23.89122       -0.08000
C        -13.27119      -23.11186       -1.16528
N        -13.70016      -22.49538       -2.04822
C        -13.43187      -23.70670        1.16764
N        -13.93294      -23.58840        2.20840
C        -10.65451      -26.95432        4.20461
N        -10.53722      -26.88761        5.35576
C         -9.85161      -29.29539        2.68031
N         -9.42979      -30.24827        3.18792
H         -5.56355        2.37009        2.08627
H         -6.20419       -2.13961        4.16541
H         -4.46056       -1.68332       -1.67371
H         -5.73870       -3.70436       -2.71607
H         -5.94822       -4.41731       -4.36506
H         -6.74034       -4.65481       -6.75824
H         -8.26131       -6.38579       -8.21424
H         -8.89460       -7.79047       -7.34729
H         -7.24642       -7.82925       -8.00702
H         -4.76837       -9.64126        1.94104
H         -4.27774       -9.32716        4.46830
H         -4.50348       -7.32780        6.34714
H         -4.95195       -5.72372        5.75428
H         -3.29242       -6.31109        5.55203
H         -6.25261      -10.13099        0.74045
H         -8.37025      -16.52997       -3.70158
H         -8.20341      -21.20832       -5.65657
H         -8.11605      -20.21076       -8.06852
H         -8.08243      -17.50520       -9.07932
H         -9.02862      -16.36963       -8.11223
H         -9.84731      -17.68182       -8.97098
H         -8.18120      -18.72866        1.85697
H         -9.19116      -19.37304        4.16897
H        -10.97984      -21.13766        5.16586
H        -11.78672      -22.19523        4.00270
H        -12.40429      -20.55379        4.28942
H         -9.94933      -22.73445       -0.25181
H        -10.04381      -25.01718       -3.28477
H        -10.05951      -28.93423        0.03050
H        -11.57570      -24.98098        2.71312
