92

C         -2.36046       -1.96565       -1.92217
C         -1.02979       -2.18541       -1.78148
C         -0.41089       -3.43165       -2.09797
N          0.09510       -4.44136       -2.34284
C         -0.11960       -1.18060       -1.34100
N          0.62931       -0.37128       -0.97579
C         -3.36834       -2.91596       -2.49739
C         -4.54867       -2.21066       -2.74288
C         -5.70652       -2.77540       -3.26804
C         -5.68208       -4.14825       -3.59148
C         -4.50286       -4.87184       -3.35731
C         -3.33960       -4.27706       -2.79749
S         -4.68703       -6.52245       -3.84212
C         -6.27878       -6.26723       -4.34292
C         -6.71003       -4.98343       -4.14777
Br        -7.34871       -7.60673       -5.09795
C         -4.41687       -0.80461       -2.33943
O         -5.24461        0.05606       -2.54956
C         -3.08538       -0.69800       -1.65553
C         -2.77656        0.32291       -0.84030
C         -3.63670        1.46515       -0.56126
N         -4.42417        1.38542        0.52333
C         -5.18176        2.46952        0.77165
C         -5.15669        3.60742        0.00225
C         -4.29662        3.57940       -1.07380
N         -3.50027        2.53050       -1.35449
C         -4.25151        4.71244       -1.99827
C         -3.83402        4.57072       -3.26417
C         -3.85492        5.63431       -4.20626
S         -4.11602        5.21842       -5.83879
C         -4.06070        6.84173       -6.40344
C         -3.83803        7.70072       -5.33378
C         -3.68349        7.00274       -4.07561
C         -3.38738        7.73102       -2.79541
C         -2.91566        9.16614       -3.01638
C         -3.80689        9.88111       -4.04112
N         -3.43084       11.29679       -4.12737
C         -3.70330        9.20030       -5.42330
C         -4.21034        7.16588       -7.79447
C         -4.38398        6.22969       -8.73963
C         -4.52366        6.47635      -10.16120
C         -4.68134        5.50870      -11.08014
C         -4.90927        5.73047      -12.48846
C         -5.20790        4.60969      -13.16517
C         -5.25221        3.41637      -12.33558
S         -4.68151        3.79879      -10.72099
C         -5.73297        2.20509      -12.67501
C         -6.29318        1.82916      -13.95689
C         -6.90907        0.63789      -13.94867
C         -6.88050       -0.02097      -12.66033
S         -5.87862        0.85820      -11.53866
C         -7.56963       -1.13774      -12.37711
C         -7.61955       -1.73661      -11.08181
S         -8.90241       -1.23372      -10.02262
C         -8.46501       -2.34114       -8.79658
C         -7.36858       -3.07572       -9.16243
C         -6.85335       -2.72152      -10.47346
C         -5.72333       -3.36487      -11.01948
C         -5.17158       -3.07368      -12.30074
N         -4.71301       -2.87439      -13.34723
C         -5.17451       -4.36013      -10.17410
C         -5.71134       -4.69477       -8.89317
C         -6.83773       -4.06318       -8.32896
H         -6.59718       -2.17127       -3.41918
H         -2.47461       -4.90809       -2.62544
H         -7.70482       -4.63377       -4.39718
H         -1.86527        0.37088       -0.26179
H         -5.84495        2.39098        1.62748
H         -5.80243        4.44937        0.21241
H         -4.63595        5.65082       -1.62136
H         -3.53641        3.58439       -3.62148
H         -2.62289        7.19316       -2.22233
H         -4.30240        7.75767       -2.19219
H         -1.87349        9.16237       -3.36186
H         -2.93158        9.69005       -2.05262
H         -4.84967        9.83071       -3.70087
H         -2.45068       11.37287       -4.40064
H         -3.49111       11.71785       -3.19998
H         -2.73072        9.42388       -5.88129
H         -4.47831        9.60873       -6.08356
H         -4.16374        8.21287       -8.07886
H         -4.44101        5.18484       -8.44754
H         -4.52699        7.51682      -10.47345
H         -4.87789        6.71498      -12.93268
H         -5.43881        4.60425      -14.22063
H         -6.24541        2.46217      -14.83149
H         -7.40815        0.21450      -14.80910
H         -8.18078       -1.60092      -13.14718
H         -9.04139       -2.38980       -7.88281
H         -4.29498       -4.91062      -10.51317
H         -5.22161       -5.48492       -8.32163
H         -7.23205       -4.33655       -7.35918
