98

C          2.04991       -2.12795       -1.63082
C          3.06834       -2.99001       -1.62613
C          4.26873       -2.88595       -2.41174
C          5.14067       -3.88112       -2.18993
C          4.71148       -4.81632       -1.16322
S          3.08129       -4.39951       -0.61403
C          5.42503       -5.83880       -0.65487
C          6.72167       -6.31868       -1.09785
C          7.15150       -7.41035       -0.44379
C          6.21340       -7.89342        0.54631
S          4.88607       -6.77960        0.72744
C          6.32001       -9.05725        1.21040
N          5.45340       -9.74216        2.05277
C          4.08704       -9.69664        2.11461
S          3.33978       -9.71775        3.67487
C          1.80705       -9.48005        3.00831
N          0.68346       -9.26094        3.86188
O         -0.06472       -8.32294        3.55855
O          0.52922      -10.03904        4.81233
C          1.79589       -9.49356        1.63744
C          3.11711       -9.66518        1.10600
C          3.41959       -9.67388       -0.29998
C          2.55221       -9.79737       -1.31889
C          2.97749       -9.49127       -2.70265
N          3.91760       -8.70036       -2.92972
N          2.21004      -10.09110       -3.64713
C          2.19603       -9.94417       -4.93959
C          3.03018       -9.07159       -5.77849
C          2.50636       -8.14065       -6.68619
S          3.56570       -7.14856       -7.63590
C          4.92210       -7.91355       -6.86396
S          4.77176       -9.26145       -5.77082
C          1.22197      -10.81931       -5.62624
S          1.33630      -11.13464       -7.31452
C          0.20231      -12.39864       -7.25186
C         -0.25666      -12.59269       -5.96834
C          0.16762      -11.55775       -5.07878
C         -0.46217      -11.46108       -3.71302
C         -1.86865      -12.12151       -3.70085
C         -2.42372      -12.05790       -2.33595
N         -2.84023      -11.98996       -1.25678
C         -1.81452      -13.58960       -4.18760
O         -3.15590      -14.11576       -4.29209
C         -3.20245      -15.51609       -4.57505
C         -1.15157      -13.71418       -5.56434
C         -0.14503      -13.09747       -8.43270
C          0.13636      -14.40350       -8.55313
C         -0.15565      -15.23195       -9.70125
C         -0.17703      -14.89137      -10.99256
C         -0.74005      -15.86740      -11.98618
O         -0.85604      -17.06709      -11.86971
C         -1.19426      -15.03973      -13.11567
C         -1.84185      -15.48663      -14.25338
C         -2.25518      -14.52956      -15.18266
C         -2.08423      -13.13780      -14.90394
C         -2.54577      -12.19046      -15.82624
C         -3.12038      -12.60895      -17.02144
C         -3.25131      -13.96076      -17.30880
C         -2.83848      -14.92320      -16.39627
F         -3.77374      -14.35202      -18.47784
F         -3.53254      -11.68862      -17.90532
C         -1.42388      -12.72486      -13.73365
C         -0.91144      -13.68462      -12.87726
C         -0.01128      -13.61894      -11.70052
C          0.98644      -12.71425      -11.54840
C          2.09273      -12.95600      -10.68443
N          3.01986      -13.16475      -10.02295
C          1.06670      -11.51271      -12.31649
N          1.09923      -10.53242      -12.92315
H          2.05853       -1.23633       -2.24591
H          1.17572       -2.29077       -1.00616
H          4.44253       -2.07068       -3.09966
H          6.09905       -3.94570       -2.68406
H          7.27000       -5.86793       -1.91280
H          8.07371       -7.92614       -0.67447
H          7.23689       -9.63414        1.09828
H          5.92406      -10.06719        2.89658
H          0.89530       -9.35623        1.05040
H          4.45426       -9.50365       -0.56480
H          1.51129      -10.05602       -1.17806
H          1.43903       -8.04041       -6.82862
H          5.91196       -7.54661       -7.09513
H         -0.56536      -10.40494       -3.42935
H          0.19075      -11.93948       -2.97271
H         -2.54342      -11.56039       -4.36352
H         -1.26640      -14.19268       -3.44980
H         -4.24907      -15.80964       -4.68984
H         -2.75769      -16.08694       -3.75588
H         -2.69194      -15.76072       -5.51251
H         -1.91704      -13.83915       -6.33970
H         -0.55329      -14.63606       -5.56164
H         -0.62711      -12.52373       -9.21515
H          0.59012      -14.93885       -7.71998
H         -0.40197      -16.26400       -9.43288
H         -1.99733      -16.55174      -14.40408
H         -2.44565      -11.12458      -15.64255
H         -2.95619      -15.97026      -16.65147
H         -1.30417      -11.66363      -13.53443
