120

C         -3.50561       -2.27958       -2.31455
C         -3.31894       -2.75579       -3.57382
C         -2.63944       -3.98175       -3.85026
N         -2.08518       -4.97220       -4.07586
C         -3.84715       -2.09097       -4.71765
N         -4.27463       -1.54794       -5.65140
C         -3.12046       -2.96143       -1.04308
C         -3.84361       -2.37645        0.00072
C         -3.71590       -2.73905        1.33608
C         -2.78507       -3.75197        1.65447
C         -2.05242       -4.34603        0.61478
C         -2.20180       -3.96139       -0.74314
S         -0.98111       -5.55794        1.22564
C         -1.47030       -5.28057        2.81679
C         -2.41892       -4.30049        2.93103
Br        -0.77957       -6.22115        4.28204
C         -4.68659       -1.28010       -0.49786
O         -5.55412       -0.71820        0.13480
C         -4.26234       -1.06968       -1.92121
C         -4.37049        0.10984       -2.55566
C         -4.90963        1.35375       -1.98684
C         -6.26641        1.67681       -2.10306
C         -6.68992        2.91957       -1.63908
C         -5.79219        3.81803       -1.02282
C         -4.45226        3.49898       -0.89842
C         -4.01237        2.26781       -1.39404
C         -6.49627        5.02743       -0.65897
C         -7.84137        4.92958       -1.07301
C         -8.06669        3.58484       -1.78222
C         -8.39061        3.81268       -3.28928
C         -7.31377        4.54167       -4.09920
C         -9.20002        2.75015       -1.13233
C         -8.99481        2.37802        0.33443
C         -8.73712        5.97398       -0.85379
C         -8.27979        7.13974       -0.21675
C         -6.93293        7.21352        0.20240
C         -6.03631        6.16509       -0.02255
C         -9.22816        8.23789        0.05148
C         -8.86390        9.52840        0.11373
C         -9.77724       10.61946        0.40093
C         -9.45245       11.92215        0.42432
C        -10.39010       13.00118        0.64061
C         -9.89981       14.20570        0.30823
C         -8.54982       14.14326       -0.22519
S         -7.85828       12.55955        0.10642
C         -7.96253       15.05814       -1.01710
C         -8.54999       16.30145       -1.48059
C         -7.98896       16.76184       -2.60917
C         -6.91720       15.91753       -3.08953
S         -6.43999       14.77828       -1.85427
C         -6.41925       15.95860       -4.33411
C         -5.42614       15.04694       -4.78703
C         -5.55032       13.81644       -5.39730
C         -4.27277       13.22432       -5.72373
N         -4.13079       11.99854       -6.30627
C         -5.34896       11.41691       -6.50989
C         -6.60007       11.98499       -6.19816
C         -7.86035       11.19217       -6.44083
C         -8.24489       10.35909       -5.22667
N         -6.75346       13.22012       -5.63985
C         -3.19754       14.03062       -5.39149
S         -3.77363       15.41204       -4.51882
C         -1.79621       13.78727       -5.55075
C         -0.85878       14.72909       -5.75087
C         -0.89909       16.18771       -5.92619
C         -1.71450       16.87994       -6.75933
C         -1.72468       18.30121       -6.83015
N         -1.75952       19.46062       -6.85874
C         -2.58942       16.22199       -7.67366
N         -3.28268       15.70327       -8.44866
C          0.31449       16.72460       -5.25238
C          1.19313       15.65531       -5.04074
C          0.55593       14.37562       -5.40929
O          1.06854       13.27755       -5.36810
C          2.46984       15.80061       -4.51398
C          2.89912       17.10739       -4.18640
C          2.00586       18.17677       -4.36025
C          0.69648       18.00439       -4.87227
S          2.72733       19.67471       -3.88919
C          4.18862       18.92325       -3.50749
C          4.16391       17.56532       -3.68017
Br         5.69562       19.86051       -2.90886
H         -4.29392       -2.23344        2.10514
H         -1.57885       -4.44063       -1.49035
H         -2.84444       -3.97766        3.87372
H         -3.93744        0.27263       -3.53848
H         -6.96590        0.99477       -2.57523
H         -3.74785        4.19778       -0.46028
H         -2.95197        2.03401       -1.33321
H         -9.32630        4.37871       -3.38462
H         -8.56627        2.84280       -3.77309
H         -7.14887        5.55856       -3.73107
H         -7.62012        4.61359       -5.14744
H         -6.35755        4.00957       -4.08150
H         -9.33370        1.81633       -1.69458
H        -10.15067        3.29355       -1.21430
H         -8.10650        1.75437        0.47201
H         -9.85524        1.80270        0.69340
H         -8.90138        3.26375        0.96895
H         -9.76752        5.89134       -1.18658
H         -6.56191        8.09553        0.72031
H         -5.00536        6.25375        0.30181
H        -10.26499        7.94811        0.19732
H         -7.82668        9.79780       -0.07247
H        -10.81349       10.33865        0.57540
H        -11.39926       12.83625        0.99054
H        -10.47541       15.11836        0.35823
H         -9.39517       16.77319       -1.00157
H         -8.32579       17.64039       -3.14111
H         -6.80927       16.66584       -5.05975
H         -5.29558       10.42387       -6.95090
H         -7.73345       10.54298       -7.31513
H         -8.67774       11.88241       -6.68174
H         -7.45563        9.64590       -4.96565
H         -9.15909        9.79191       -5.43032
H         -8.42738       10.99271       -4.35192
H         -1.48412       12.75146       -5.40846
H          3.11379       14.93687       -4.37250
H          0.04994       18.86988       -4.96470
H          5.00655       16.91537       -3.47742
