120

C          0.09486        1.13312        4.29210
C         -0.15117        0.37915        5.38654
C          0.79390       -0.57120        5.88211
N          1.55781       -1.32938        6.27784
C         -1.33524        0.52943        6.16785
N         -2.30418        0.64704        6.79223
C          1.34280        1.16778        3.46133
C          1.34003        2.36741        2.74424
C          2.28716        2.73533        1.80035
C          3.35229        1.84371        1.57582
C          3.40399        0.65330        2.32216
C          2.39915        0.28673        3.26356
S          4.82308       -0.25146        1.92263
C          5.31582        0.89254        0.78257
C          4.45572        1.94955        0.66438
Br         6.88922        0.73406       -0.22085
C          0.19459        3.18531        3.13048
O          0.17344        4.39908        3.09684
C         -0.75532        2.23681        3.78236
C         -2.09416        2.27689        3.66823
C         -2.88121        3.25287        2.89646
C         -3.37369        4.40585        3.51251
C         -4.21146        5.24194        2.79375
C         -4.50275        4.99118        1.43781
C         -3.98975        3.87424        0.80093
C         -3.19653        2.98730        1.54328
C         -5.37730        6.02817        0.95530
C         -5.67807        6.90302        2.02177
C         -4.95671        6.47810        3.29588
C         -5.97969        6.12107        4.41970
C         -6.95029        4.98284        4.09588
C         -4.00868        7.60259        3.80767
C         -2.90723        8.03485        2.84056
C         -6.54134        7.96598        1.85543
C         -7.10188        8.17689        0.59242
C         -6.78235        7.30935       -0.47549
C         -5.91052        6.22966       -0.30015
C         -8.05182        9.27508        0.38600
C         -7.96671       10.42442        1.07571
C         -8.89750       11.54087        0.90375
C        -10.07462       11.68186        1.64723
C        -10.97473       12.79565        1.46014
N        -12.10903       12.81003        2.20130
C        -12.35510       11.82060        3.10971
C        -11.47960       10.78064        3.28326
N        -10.34045       10.71215        2.55380
C        -11.69569        9.72270        4.21937
N        -11.89523        8.86832        4.99414
C        -13.55960       11.95850        3.87863
N        -14.52000       12.07013        4.52327
C        -10.70908       13.84636        0.53003
C         -9.48893       13.72737       -0.22290
C         -8.57961       12.54720       -0.03931
N         -7.50386       12.57372       -0.84710
S         -7.62403       13.93546       -1.77416
N         -8.99783       14.58260       -1.13876
C        -11.62284       15.00407        0.25699
S        -11.82783       15.50406       -1.39198
C        -12.85817       16.81069       -1.02350
C        -13.20212       16.76519        0.31755
C        -12.44629       15.78184        1.07579
C        -12.65310       15.66521        2.56853
C        -13.47166       16.81370        3.17750
C        -14.70044       17.12191        2.31574
C        -15.58378       18.16267        2.96812
O        -16.27804       18.95759        2.33990
C        -14.24131       17.64151        0.96074
C        -13.27755       17.67449       -2.08674
C        -13.67037       18.93801       -1.86142
C        -14.14449       19.85160       -2.87845
C        -14.06414       21.19096       -2.81614
C        -14.54570       22.06912       -3.85285
C        -14.37251       23.36942       -3.58176
C        -13.74886       23.63235       -2.29435
S        -13.33127       22.10705       -1.51586
C        -13.54154       24.84870       -1.75117
C        -13.90249       26.11959       -2.35770
C        -13.65855       27.18633       -1.58482
C        -13.07941       26.84435       -0.31244
S        -12.82033       25.12846       -0.16171
C        -12.77718       27.71593        0.65309
H          2.19369        3.67176        1.25735
H          2.48836       -0.66114        3.78389
H          4.59872        2.77666       -0.02162
H         -2.71294        1.48182        4.07751
H         -3.13568        4.67466        4.53277
H         -4.20732        3.67905       -0.24646
H         -2.82934        2.09174        1.05202
H         -6.57550        7.00942        4.67160
H         -5.44450        5.84878        5.33958
H         -7.43320        5.11459        3.12382
H         -7.74247        4.93558        4.85066
H         -6.43820        4.01557        4.09931
H         -3.52668        7.28804        4.74290
H         -4.59868        8.49509        4.06007
H         -2.20120        7.22113        2.65126
H         -2.33983        8.86836        3.26901
H         -3.31447        8.37415        1.88387
H         -6.77214        8.60819        2.69887
H         -7.20147        7.47402       -1.46536
H         -5.66636        5.57250       -1.12630
H         -8.81752        9.10140       -0.36362
H         -7.18742       10.58958        1.81572
H        -11.68939       15.59109        3.08416
H        -13.22627       14.75782        2.76751
H        -12.84713       17.71117        3.27256
H        -13.77883       16.53911        4.19402
H        -15.30371       16.21174        2.20130
H        -15.65051       18.12115        4.06649
H        -13.81819       18.64482        1.09453
H        -15.10992       17.72668        0.29566
H        -13.22476       17.29815       -3.10584
H        -13.64731       19.35188       -0.86051
H        -14.63040       19.39032       -3.73612
H        -14.99934       21.69995       -4.76201
H        -14.68234       24.15035       -4.26009
H        -14.34133       26.20357       -3.34082
H        -13.87666       28.20503       -1.87321
H        -12.95768       28.77881        0.53423
H        -12.34639       27.39029        1.59467
