95

C         -6.06281        3.36647        7.34567
C         -5.34069        2.33989        7.85860
C         -4.99850        2.23694        9.24151
N         -4.71813        2.14350       10.35853
C         -4.86960        1.24920        7.06707
N         -4.47533        0.37241        6.42674
C         -6.61696        4.53052        8.12345
C         -7.44133        5.26989        7.27658
C         -8.05715        6.46942        7.62777
C         -7.84752        6.96438        8.93221
C         -7.06668        6.20672        9.81690
C         -6.44239        4.98833        9.43161
S         -6.98064        6.96763       11.36929
C         -7.88173        8.29509       10.84214
C         -8.30035        8.18400        9.54377
Br        -8.26339        9.77719       11.92351
C         -7.54762        4.63457        5.95753
O         -8.37546        4.92011        5.11840
C         -6.51280        3.54281        5.92912
C         -6.04786        3.01532        4.77931
C         -6.41749        3.46371        3.46911
S         -5.42333        4.67435        2.72391
C         -6.39177        4.78359        1.29360
C         -7.35402        3.78911        1.31665
C         -7.39218        3.05849        2.57492
C         -8.32554        2.04767        2.84717
C         -9.20729        1.82412        1.76812
F        -10.14501        0.87360        1.91340
C         -9.16450        2.53448        0.53718
F        -10.07255        2.24045       -0.40825
C         -8.23100        3.54012        0.24802
C         -6.09616        5.82866        0.35963
C         -7.09313        6.50249       -0.23377
C         -6.92277        7.61633       -1.13662
C         -7.84262        8.58755       -1.32131
C         -9.12117        8.71294       -0.52459
C         -7.60189        9.71345       -2.30234
N         -8.20755        9.36249       -3.57505
C         -9.49360        9.64063       -3.97993
C        -10.28555       10.64777       -3.59300
C        -11.62620       10.86206       -4.10642
C        -12.44775       11.86648       -3.76310
C        -13.73068       12.12504       -4.37625
C        -14.23320       13.33340       -4.07737
C        -13.37875       14.11025       -3.19815
S        -12.08881       13.08262       -2.56885
C        -13.42926       15.43578       -2.97523
C        -14.29883       16.40603       -3.61060
C        -13.85836       17.67035       -3.49176
C        -12.63319       17.78806       -2.72031
S        -12.26828       16.26636       -1.95886
C        -11.86463       18.88971       -2.68203
C        -10.60903       19.00901       -1.99917
C        -10.10931       18.39204       -0.84721
C         -8.78419       18.78119       -0.56393
C         -8.33931       19.72702       -1.46082
S         -9.42490       20.12978       -2.64720
C         -7.03161       20.11927       -1.09395
C         -6.64552       19.41504        0.02906
C         -7.73434       18.46009        0.48404
C         -5.34794       19.78465        0.44793
C         -4.78867       20.74959       -0.39479
S         -5.91393       21.20265       -1.65447
C         -3.50261       21.35773       -0.27701
C         -2.83542       21.88220       -1.31374
H         -8.65656        7.01556        6.90468
H         -5.83702        4.47672       10.17110
H         -8.89157        8.93568        9.03346
H         -5.24372        2.28911        4.77606
H         -8.40841        1.49044        3.76857
H         -8.23589        4.04277       -0.70989
H         -5.06391        6.14154        0.22402
H         -8.12297        6.22610       -0.02687
H         -5.99630        7.63758       -1.70933
H         -9.21782        7.97114        0.27256
H         -9.99667        8.61026       -1.17073
H         -9.15821        9.68953       -0.03054
H         -6.52686        9.85896       -2.45975
H         -7.97620       10.66401       -1.90596
H         -7.80708        8.52997       -3.99968
H         -9.84410        8.92477       -4.72156
H         -9.89356       11.37558       -2.88879
H        -11.95484       10.16213       -4.87168
H        -14.20729       11.42142       -5.04385
H        -15.16633       13.70734       -4.47279
H        -15.17118       16.13216       -4.18636
H        -14.33722       18.52119       -3.95780
H        -12.17442       19.74780       -3.27527
H        -10.66401       17.68704       -0.24392
H         -8.08671       18.69666        1.49063
H         -7.40577       17.41967        0.41373
H         -4.83080       19.37073        1.30446
H         -3.03568       21.36427        0.70480
H         -3.22279       21.88191       -2.32778
H         -1.85550       22.32402       -1.16977
