103

C         -5.95079       -3.34811       -0.76824
C         -5.09594       -3.63652       -1.78086
C         -4.62538       -4.95840       -2.04415
N         -4.23182       -6.02173       -2.26086
C         -4.55584       -2.64827       -2.65273
N         -4.12227       -1.84480       -3.37287
C         -6.51781       -4.31953        0.23131
C         -7.20034       -3.59423        1.20985
C         -7.88889       -4.15491        2.28012
C         -7.83302       -5.55399        2.43104
C         -7.11726       -6.30153        1.48410
C         -6.47673       -5.70594        0.36110
S         -7.12572       -7.98185        1.89642
C         -8.05124       -7.70623        3.28151
C         -8.39342       -6.39255        3.45339
Br        -8.55266       -9.06259        4.47239
C         -7.05677       -2.15556        0.99020
O         -7.31197       -1.30453        1.81628
C         -6.44185       -2.00104       -0.36852
C         -6.49864       -0.84544       -1.05293
C         -7.17443        0.30653       -0.58859
S         -8.82407        0.61439       -0.94104
C         -8.84054        2.14786       -0.12776
C         -7.55588        2.40239        0.27298
C         -6.64429        1.35737        0.09148
S         -5.03448        1.75828        0.80229
C         -5.81350        3.33996        1.14205
N         -7.10957        3.54661        0.87657
C        -10.01353        2.93394        0.07497
C        -11.23879        2.56020       -0.32789
C        -12.36868        3.36116       -0.01937
S        -12.85341        4.55924       -1.12738
C        -14.15851        5.09384       -0.14188
C        -14.19270        4.37111        1.04655
C        -13.22561        3.29957        1.06725
C        -13.13754        2.29958        2.19232
C        -14.27793        2.41472        3.22110
C        -15.48822        1.54300        2.87973
F        -15.33646        0.84312        1.73773
F        -15.68803        0.63686        3.87123
F        -16.63410        2.24953        2.77687
C        -14.64566        3.88883        3.47526
C        -15.11915        4.61568        2.20583
C        -15.04275        6.12381       -0.59514
C        -14.62177        7.14637       -1.35605
C        -15.47852        8.22638       -1.80916
C        -15.05033        9.46648       -2.09277
C        -15.90003       10.57323       -2.46600
C        -15.27646       11.76160       -2.43002
C        -13.89067       11.67697       -1.99814
S        -13.39385        9.99169       -1.93146
C        -13.10415       12.69159       -1.59346
C        -13.46145       14.09610       -1.53789
C        -12.57887       14.85113       -0.86700
C        -11.46280       14.09806       -0.33747
S        -11.49793       12.45269       -0.90017
C        -10.55847       14.59079        0.52146
C         -9.47993       13.83756        1.13276
C         -9.26357       13.62105        2.44023
C         -9.94692       14.01478        3.68108
C        -10.42943       15.23814        4.01210
C        -10.98211       15.52974        5.28948
N        -11.44666       15.76922        6.32732
C        -10.30566       16.38087        3.17329
N        -10.20256       17.34441        2.53418
C         -9.69257       12.91851        4.66867
C         -8.64100       12.13332        4.18623
C         -8.28616       12.53855        2.81402
O         -7.40145       12.06012        2.13578
C         -8.04383       11.10949        4.91519
C         -8.53304       10.85636        6.21891
C         -9.63629       11.59298        6.67676
C        -10.25084       12.60891        5.90331
S        -10.09563       11.10673        8.27014
C         -8.82240       10.00487        8.36914
C         -8.07338        9.93510        7.22379
Br        -8.47207        8.98188        9.89889
H         -8.42257       -3.52557        2.98740
H         -5.95813       -6.35768       -0.33186
H         -8.98877       -6.02476        4.28096
H         -6.12616       -0.75603       -2.06569
H         -5.19599        4.11763        1.57375
H         -9.88056        3.86378        0.62866
H        -11.42515        1.65312       -0.89096
H        -12.18630        2.47066        2.71320
H        -13.08438        1.28178        1.78656
H        -13.88010        2.01763        4.16583
H        -13.75479        4.40086        3.86576
H        -15.41044        3.96474        4.25729
H        -15.16828        5.68967        2.42316
H        -16.13082        4.30033        1.93173
H        -16.07630        6.08055       -0.26441
H        -13.57249        7.21904       -1.63842
H        -16.53963        8.00010       -1.88171
H        -16.94659       10.44818       -2.70711
H        -15.77313       12.69703       -2.64386
H        -14.37125       14.49237       -1.96594
H        -12.70415       15.91145       -0.69244
H        -10.62793       15.64259        0.76337
H         -8.86054       13.29400        0.41329
H         -7.21248       10.54448        4.50087
H        -11.11157       13.12639        6.31291
H         -7.22077        9.27871        7.10174
