105

C         -4.80043        1.30850        2.84577
C         -5.51693        1.66035        1.74985
C         -6.68786        2.47095        1.80549
N         -7.65227        3.11568        1.83729
C         -5.15676        1.25997        0.43126
N         -4.87760        0.92358       -0.65079
C         -5.05632        1.76090        4.25405
C         -3.99569        1.33409        5.05319
C         -3.92208        1.50623        6.43032
C         -4.98583        2.17845        7.06243
C         -6.03273        2.67009        6.26938
C         -6.08890        2.46844        4.86366
S         -7.19072        3.51526        7.23614
C         -6.35415        3.16487        8.66010
C         -5.20699        2.44808        8.45411
Br        -6.93908        3.70317       10.35588
C         -2.97819        0.64482        4.26243
O         -1.88975        0.33002        4.69447
C         -3.56694        0.47163        2.89044
C         -3.07106       -0.41297        2.00635
C         -1.91659       -1.21313        2.26475
S         -0.39003       -0.62178        1.73454
C          0.44000       -1.93327        2.42906
C         -0.40178       -2.86652        3.00137
C          0.09007       -4.12493        3.64584
C         -1.78386       -2.45150        2.88989
C         -2.87582       -3.21417        3.44092
C         -4.12714       -3.28771        2.95717
C         -5.18207       -4.06212        3.56639
C         -5.60408       -3.88662        4.82980
C         -6.64895       -4.66150        5.42121
C         -7.95593       -4.24426        5.29246
S         -9.03649       -5.31798        6.03666
C         -7.77224       -6.36975        6.50927
C         -6.50958       -5.91262        6.15392
C         -5.38441       -6.72155        6.54339
C         -3.96294       -6.21814        6.31119
C         -3.47038       -5.32892        7.44604
C         -5.59935       -8.01757        7.18572
C         -4.40457       -8.91849        7.48749
C         -3.79948       -8.71813        8.86836
C         -6.93432       -8.45076        7.51168
C         -7.49445       -9.65358        8.12305
C         -8.86298       -9.58975        8.28193
S         -9.51269       -8.14822        7.67506
C         -7.97481       -7.58527        7.18585
C         -6.81088      -10.83058        8.57103
C         -6.59325      -11.90429        7.79469
C         -5.92363      -13.10586        8.26085
C         -4.82680      -13.63107        7.69521
C         -4.18874      -14.87670        8.05806
C         -3.25553      -15.27928        7.17687
C         -3.12322      -14.38590        6.03990
S         -3.99295      -12.88453        6.36834
C         -2.53755      -14.62702        4.85245
C         -1.81723      -15.80312        4.41139
C         -1.43106      -15.75265        3.12346
C         -1.80411      -14.52618        2.43962
S         -2.69498      -13.50134        3.51953
C         -1.54343      -14.24770        1.14874
C         -1.92622      -13.06126        0.45600
S         -2.47941      -13.07784       -1.19787
C         -2.84948      -11.37540       -1.21795
C         -2.50448      -10.86815       -0.01684
C         -1.95090      -11.76925        0.86534
O         -1.55118      -11.26757        2.06928
C         -2.03660       -9.98162        1.95858
N         -1.95009       -9.19175        3.15436
O         -2.37922       -8.03161        3.07624
O         -1.46182       -9.71142        4.16551
C         -2.56595       -9.66022        0.70285
H         -3.07943        1.11218        6.99237
H         -6.94279        2.86352        4.32783
H         -4.54355        2.12307        9.24683
H         -3.54648       -0.61747        1.05547
H          1.51954       -1.96575        2.37716
H          1.16562       -4.25818        3.48346
H         -0.41840       -4.99901        3.22685
H         -0.08438       -4.09831        4.72617
H         -2.63640       -3.80803        4.32221
H         -4.40170       -2.79449        2.03026
H         -5.65371       -4.80837        2.92882
H         -5.14878       -3.12339        5.45698
H         -8.33047       -3.36390        4.78719
H         -3.91647       -5.65663        5.37902
H         -3.25302       -7.02639        6.13449
H         -4.10990       -4.45223        7.58371
H         -2.45319       -4.98225        7.23758
H         -3.45031       -5.85431        8.40158
H         -3.63270       -8.83950        6.71819
H         -4.71482       -9.95822        7.39592
H         -3.23629       -7.78745        8.93430
H         -3.09061       -9.52346        9.08646
H         -4.56092       -8.70730        9.65379
H         -9.51731      -10.33115        8.72014
H         -6.48238      -10.83823        9.60974
H         -6.88972      -11.88760        6.74482
H         -6.40802      -13.62132        9.08504
H         -4.47335      -15.43932        8.93610
H         -2.70507      -16.20462        7.26782
H         -1.61752      -16.64500        5.05928
H         -0.89436      -16.55000        2.62722
H         -1.05605      -15.01460        0.55089
H         -3.29014      -10.90355       -2.08514
H         -2.97911       -8.70554        0.40886
