76

C          4.25903       -1.61939       -8.41520
C          4.76255       -1.39960       -7.19987
C          5.45266       -0.21588       -6.76744
C          5.77210       -0.23295       -5.46450
C          5.34534       -1.43815       -4.76856
S          4.61434       -2.56490       -5.92194
C          5.44147       -1.69274       -3.44855
C          5.99744       -0.83087       -2.42352
C          5.91095       -1.33333       -1.18110
C          5.26870       -2.63319       -1.11064
S          4.84303       -3.17335       -2.71356
C          5.03957       -3.29026        0.04106
C          4.35991       -4.54961        0.16284
O          3.85433       -5.24340       -0.91442
C          3.28915       -6.42779       -0.53554
C          3.43568       -6.50373        0.83731
C          4.09970       -5.33098        1.29280
C          4.46288       -5.01351        2.66086
O          4.65086       -3.88006        3.07298
O          4.56680       -6.07662        3.49513
C          2.79079       -7.36525       -1.48780
C          1.84849       -8.28978       -1.25200
C          1.49093       -9.34305       -2.18065
C          0.79820      -10.34116       -1.60602
C          0.58215      -10.13335       -0.18344
S          0.91448       -8.45568        0.21143
C          0.36757      -11.07683        0.75172
C          0.30299      -12.51074        0.53348
C          0.65509      -13.21534        1.61376
C          1.01840      -12.37588        2.74501
S          0.43289      -10.75368        2.48774
C          1.79632      -12.76722        3.76664
C          2.29759      -11.87266        4.75983
O          3.50960      -11.23477        4.59057
C          3.78116      -10.41609        5.65778
C          2.71910      -10.54524        6.53643
C          1.78321      -11.47467        5.99166
C          0.53646      -11.86657        6.63319
O         -0.07129      -11.13906        7.40554
O          0.13286      -13.14264        6.39926
C          4.95067       -9.61738        5.83490
C          5.73194       -9.11218        4.86822
C          6.83257       -8.21321        5.15296
C          7.36614       -7.64130        4.06420
C          6.76861       -8.08041        2.81545
S          5.54106       -9.31327        3.14613
C          7.00688       -7.57571        1.58807
C          7.85401       -6.43827        1.26916
C          7.80805       -6.06810       -0.01969
C          6.92561       -6.88268       -0.81441
S          6.25766       -8.19391        0.11379
C          6.62046       -6.68053       -2.09853
H          4.33109       -0.88622       -9.21014
H          3.73406       -2.54421       -8.64515
H          5.67799        0.60112       -7.43835
H          6.28810        0.58071       -4.97579
H          6.42838        0.13705       -2.63723
H          6.25977       -0.81320       -0.29867
H          5.38580       -2.83359        0.96518
H          3.14301       -7.34608        1.44782
H          4.55573       -6.93358        3.02680
H          3.27996       -7.33975       -2.45771
H          1.80807       -9.34306       -3.21457
H          0.49280      -11.23570       -2.12881
H          0.06425      -12.95459       -0.42291
H          0.74238      -14.29689        1.63423
H          2.19244      -13.77719        3.77831
H          2.62153      -10.03154        7.48531
H          0.80208      -13.65753        5.91516
H          5.17649       -9.35131        6.86499
H          7.15758       -7.98954        6.16101
H          8.15676       -6.90590        4.11693
H          8.44367       -5.91152        2.00583
H          8.35343       -5.23206       -0.43560
H          7.04721       -5.86391       -2.66992
H          5.89664       -7.30657       -2.61056
