111

C          0.50366        0.72330       -6.12610
C          1.16785       -0.41242       -5.83051
C          1.57112       -1.32301       -6.84808
N          1.87381       -2.06773       -7.68422
C          1.41218       -0.79401       -4.48042
N          1.62349       -1.05747       -3.37070
C          0.13888        1.23122       -7.46495
C         -1.08994        1.90077       -7.36363
C         -1.62448        2.67378       -8.37700
C         -0.77897        2.98122       -9.44519
C          0.54085        2.43525       -9.49410
C          0.96410        1.48749       -8.54471
C          1.44786        2.94495      -10.43000
C          1.06553        3.95565      -11.31282
C         -0.24456        4.42764      -11.31419
C         -1.16811        3.93335      -10.39414
C         -1.42206        2.08035       -5.93351
O         -2.43947        2.55714       -5.48135
C         -0.17574        1.63400       -5.20558
C          0.39061        2.27647       -4.17009
C         -0.14561        3.45653       -3.53776
C         -1.29085        3.40235       -2.82457
C         -1.70435        4.73339       -2.44988
C         -2.90376        5.01182       -1.75423
N         -3.88972        5.22910       -1.18429
C         -0.81444        5.63138       -2.90485
C          0.24789        4.89783       -3.60458
C          1.34574        5.45164       -4.17090
C          1.74337        6.88360       -4.24290
C          2.90010        6.92448       -4.94243
C          3.32390        5.58639       -5.28140
C          2.42132        4.70536       -4.82758
C          4.52549        5.27359       -5.95808
N          5.50861        5.00326       -6.51143
C          1.10251        8.10446       -3.81038
C          1.71225        9.04646       -3.06555
C          1.01800       10.25010       -2.76715
S          0.98716       11.49609       -3.93764
C         -0.30574       12.32039       -3.15367
C         -0.56406       11.75346       -1.90801
C          0.35300       10.64431       -1.61640
C          0.42425        9.95279       -0.28283
F          1.35266        8.96482       -0.24385
F          0.75908       10.83323        0.69309
F         -0.75961        9.39904        0.06490
C         -1.68529       12.11808       -0.97364
F         -2.45987       13.13332       -1.42191
F         -2.50958       11.05552       -0.78992
F         -1.22085       12.47506        0.24621
C         -0.96481       13.34146       -3.89713
C         -1.75653       12.96946       -4.92470
C         -2.38121       14.13142       -5.52413
C         -3.17347       14.09874       -6.68993
N         -3.81896       14.06493       -7.64857
C         -2.01152       15.23010       -4.84108
C         -1.12682       14.81201       -3.74986
C         -0.58227       15.64059       -2.83714
C         -1.00539       17.02586       -2.48470
C         -0.14592       17.43309       -1.52450
C          0.82957       16.40394       -1.24268
C          0.57502       15.32633       -1.99929
C          1.87988       16.56039       -0.30806
N          2.72963       16.70450        0.46876
C         -2.17783       17.79032       -2.87478
C         -2.48094       19.03425       -2.47453
C         -3.62620       19.74476       -2.99069
C         -3.56429       20.97113       -3.53815
C         -4.64132       21.85526       -4.02737
C         -5.84406       21.48000       -4.52604
C         -6.77623       22.41043       -5.06960
N         -7.53805       23.16838       -5.50747
C         -6.24843       20.11179       -4.61590
N         -6.56295       19.00654       -4.68847
C         -4.06061       23.23044       -4.06555
C         -2.67114       23.13123       -3.91372
C         -2.27839       21.74844       -3.63253
O         -1.13602       21.36646       -3.48628
C         -1.80715       24.21395       -3.96031
C         -2.35828       25.48293       -4.14001
C         -3.76991       25.63001       -4.23677
C         -4.61234       24.49694       -4.19170
C         -4.30646       26.91868       -4.38137
C         -3.47320       28.03606       -4.45004
C         -2.09093       27.88570       -4.37262
C         -1.53534       26.61748       -4.21356
H         -2.57805        3.17659       -8.23868
H          1.98273        1.10865       -8.56913
H          2.48289        2.60823      -10.43883
H          1.79767        4.38464      -11.99246
H         -0.53988        5.20838      -12.01064
H         -2.17583        4.34465      -10.38843
H          1.38276        1.99579       -3.82404
H         -1.87996        2.51583       -2.63684
H         -0.89676        6.69639       -2.77973
H          3.44500        7.81361       -5.23095
H          2.51499        3.63871       -4.91656
H          0.08586        8.25280       -4.17202
H          2.72337        8.91633       -2.68908
H         -1.92727       11.96492       -5.27944
H         -2.24064       16.23493       -5.14869
H         -0.17092       18.36691       -0.98013
H          1.18117       14.43656       -2.04615
H         -2.87395       17.31504       -3.55371
H         -1.84309       19.58766       -1.78701
H         -4.56609       19.21220       -2.87280
H         -0.73757       24.06245       -3.84479
H         -5.68647       24.64872       -4.24614
H         -5.38314       27.06422       -4.44772
H         -3.90520       29.02694       -4.56883
H         -1.44460       28.75784       -4.43425
H         -0.45308       26.52187       -4.14951
