107

C          0.40448        0.18908        5.40434
C          1.68852       -0.29338        5.66743
F          2.43629        0.31697        6.59504
C          2.18784       -1.39986        4.99447
F          3.40402       -1.88099        5.28410
C          1.42934       -2.02619        4.01781
C          0.14975       -1.55075        3.73390
C         -0.40360       -0.44700        4.44759
C         -1.74224       -0.03898        4.21832
C         -2.51075       -0.73398        3.29223
C         -1.90124       -1.78512        2.59492
C         -0.59875       -2.20034        2.76933
C         -2.86211       -2.50991        1.78445
O         -2.54488       -3.30137        0.92551
C         -4.19876       -2.01980        2.24215
C         -3.96261       -0.72551        2.90555
C         -4.85125        0.28198        3.10493
C         -6.19720        0.19996        2.69924
N         -7.35179        0.05885        2.41369
C         -4.49751        1.49945        3.73498
N         -4.22902        2.48040        4.27414
C         -5.31258       -2.76284        2.31266
C         -5.43676       -4.19599        2.03355
C         -5.75898       -5.19895        2.96783
O         -5.92136       -4.82997        4.29412
C         -6.96345       -3.87364        4.53575
C         -5.74684       -6.61451        2.63581
O         -5.79516       -7.49797        3.70127
C         -6.65144       -7.37434        4.84594
C         -5.48419       -7.16803        1.26666
C         -5.27756       -6.07729        0.33151
C         -5.22318       -4.62828        0.72132
N         -4.97530       -3.79018       -0.30406
S         -4.60456       -4.72564       -1.59271
N         -5.17000       -6.14250       -1.00243
C         -5.45294       -8.65926        0.74205
C         -5.90030       -9.79036        1.44794
C         -6.04407      -11.14763        0.90051
N         -6.62070      -12.02185        1.73803
C         -6.64314      -11.80652        3.07921
C         -6.41449      -10.58078        3.58505
N         -6.16355       -9.57812        2.74182
F         -6.40600      -10.35617        4.90716
F         -6.71565      -12.86956        3.89252
C         -5.55631      -11.61769       -0.38694
C         -4.89650      -10.54196       -1.04528
C         -4.90507       -9.08601       -0.53503
N         -4.30089       -8.32184       -1.45409
S         -3.86915       -9.18209       -2.76328
N         -4.15875      -10.67851       -2.16645
C         -5.67592      -13.01632       -1.13229
C         -5.48161      -14.41417       -0.73615
O         -4.80602      -14.80050        0.42945
C         -5.31441      -14.11274        1.52202
C         -5.79550      -15.65310       -1.49383
O         -5.72448      -16.77956       -0.68062
C         -6.00681      -18.09963       -1.11887
C         -6.14822      -15.64256       -2.85079
C         -6.27146      -14.31449       -3.36895
C         -6.04558      -13.02982       -2.53120
N         -6.26801      -11.93840       -3.28977
S         -6.51644      -12.39488       -4.84122
N         -6.63852      -14.01661       -4.63035
C         -6.42592      -16.83294       -3.69983
C         -6.18405      -17.11535       -4.99232
C         -6.94059      -18.24186       -5.63554
O         -7.20326      -19.33037       -5.17375
C         -7.43714      -17.65181       -6.90615
C         -8.53653      -18.09805       -7.61240
C         -9.22075      -17.16210       -8.39653
C         -8.78776      -15.79808       -8.41733
C         -9.61292      -14.83726       -9.01990
C        -10.79543      -15.22142       -9.64739
C        -11.15794      -16.55908       -9.71254
C        -10.38293      -17.53099       -9.09012
F        -12.27719      -16.92537      -10.35117
F        -11.58861      -14.28326      -10.18210
C         -7.58235      -15.42372       -7.78657
C         -6.88158      -16.37316       -7.05699
C         -5.77762      -16.23070       -6.07437
C         -4.63800      -15.53200       -6.16206
C         -3.64451      -15.57007       -5.13317
N         -2.86231      -15.59557       -4.28240
C         -4.38972      -14.67244       -7.26853
N         -4.23151      -13.94409       -8.16276
H          0.04938        1.04866        5.96403
H          1.84069       -2.89438        3.50968
H         -2.16279        0.76295        4.81560
H         -0.22679       -3.05210        2.20622
H         -6.23561       -2.35240        2.69177
H         -6.50415       -2.89214        4.67513
H         -7.46342       -4.11005        5.47941
H         -7.72659       -3.84907        3.74674
H         -6.06245       -7.64752        5.73073
H         -7.48356       -8.08370        4.77975
H         -7.11634       -6.41276        5.03898
H         -4.68284      -13.22384        1.61492
H         -5.27099      -14.63684        2.47412
H         -6.38442      -13.97750        1.33524
H         -5.37272      -18.38470       -1.96259
H         -7.07548      -18.23462       -1.32428
H         -5.77178      -18.79481       -0.30698
H         -7.03790      -17.57996       -3.20675
H         -8.91982      -19.10435       -7.45845
H         -9.36911      -13.77834       -8.98279
H        -10.71351      -18.56524       -9.13079
H         -7.27120      -14.38136       -7.77648
