101

C         -0.83787        4.71897       -3.88550
C         -1.98114        4.02515       -3.69621
C         -3.18968        4.38608       -4.35415
N         -4.16606        4.67060       -4.91757
C         -1.99001        2.79203       -2.97111
N         -1.99467        1.76741       -2.43438
C         -0.61522        5.82433       -4.83224
C          0.67561        5.66609       -5.36352
C          1.21265        6.54196       -6.28535
C          0.48278        7.70254       -6.57741
C         -0.76912        7.94748       -5.93310
C         -1.33775        6.97496       -5.09133
C         -1.39507        9.18882       -6.11326
C         -0.82503       10.16053       -6.93697
C          0.35878        9.89231       -7.61894
C          1.00775        8.66995       -7.44302
C          1.41303        4.63428       -4.58638
O          2.53960        4.23200       -4.77533
C          0.49675        4.33776       -3.43246
C          1.01672        4.25817       -2.19499
C          0.29017        4.58678       -1.00251
C          0.42176        4.08249        0.27215
O          1.38794        3.18139        0.58671
C          1.22533        2.67259        1.91943
C          0.71446        3.72010        2.92281
C          1.70645        4.86340        3.17359
O         -0.56344        4.23429        2.49875
C         -0.51917        4.62508        1.20127
C         -1.34956        5.60047        0.66830
S         -0.77304        5.94934       -0.92528
C         -2.47432        6.40852        1.23921
C         -3.59509        6.86896        0.49918
C         -4.63635        7.70887        1.07954
N         -5.59899        8.21017        0.27309
C         -5.61401        7.87210       -1.03022
C         -4.67259        7.03217       -1.55900
N         -3.67561        6.52201       -0.80845
F         -4.69020        6.73109       -2.86300
F         -6.57611        8.38896       -1.80645
C         -4.69446        8.03406        2.46178
C         -3.60410        7.55057        3.24294
C         -2.45513        6.78567        2.61244
N         -1.46144        6.57205        3.49171
S         -1.97176        7.06408        4.97405
N         -3.45043        7.65897        4.57416
C         -5.79547        8.81902        3.11666
C         -5.80921        9.69927        4.19270
O         -4.70041       10.05103        4.89209
C         -5.07788       10.52590        6.19569
C         -6.14138       11.63125        6.09881
C         -5.62588       12.87093        5.36975
O         -7.34648       11.17093        5.45761
C         -7.09398       10.25560        4.48362
C         -8.08746        9.78165        3.66218
S         -7.43388        8.64117        2.55590
C         -9.46786       10.12507        3.57029
C        -10.43872        9.50424        4.26057
C        -11.90536        9.57398        4.05185
C        -12.63797       10.65695        3.69605
C        -14.06294       10.63620        3.61268
N        -15.21876       10.61843        3.53772
C        -12.04087       11.92863        3.43636
N        -11.55936       12.96025        3.21739
C        -12.44373        8.24832        4.47845
C        -11.44273        7.57676        5.19292
C        -10.20094        8.36537        5.21239
O         -9.22337        8.11939        5.88617
C        -11.60036        6.30404        5.71878
C        -12.81556        5.64445        5.50253
C        -13.84982        6.29215        4.77017
C        -13.64955        7.59311        4.25701
C        -15.05971        5.61088        4.56044
C        -15.24918        4.31741        5.05176
C        -14.23069        3.68265        5.75603
C        -13.02160        4.34180        5.98115
H          2.20985        6.37545       -6.68139
H         -2.28324        7.16534       -4.58921
H         -2.31949        9.42455       -5.58933
H         -1.30585       11.12964       -7.04510
H          0.79097       10.64461       -8.27389
H          1.94322        8.49144       -7.96926
H          2.08150        4.05805       -2.07581
H          2.19451        2.27795        2.24419
H          0.52350        1.83173        1.86518
H          0.54076        3.21981        3.88250
H          1.92554        5.43569        2.26585
H          2.65283        4.48357        3.57024
H          1.29070        5.57614        3.89388
H         -4.17588       10.90092        6.69087
H         -5.45118        9.67843        6.78791
H         -6.42489       11.92774        7.11601
H         -5.38151       12.65457        4.32456
H         -4.73242       13.27087        5.85882
H         -6.39557       13.64964        5.35544
H         -9.70101       10.85714        2.80370
H        -10.78072        5.83354        6.25504
H        -14.44402        8.04157        3.66832
H        -15.87228        6.08210        4.01020
H        -16.19301        3.80457        4.88194
H        -14.37638        2.67245        6.13099
H        -12.23747        3.82426        6.53036
