116

C         -6.88270       -7.53197        3.14836
C         -5.67555       -7.50126        3.85587
C         -5.21486       -6.31734        4.45427
C         -5.95928       -5.13944        4.37717
C         -7.16401       -5.17086        3.69391
C         -7.62596       -6.36369        3.06293
C         -8.84146       -6.01786        2.25417
C         -9.85918       -6.82421        1.88353
C         -9.90289       -8.19900        2.24833
N         -9.94172       -9.31438        2.56523
C        -11.00168       -6.30502        1.20955
N        -11.91631       -5.86013        0.65028
C         -8.79217       -4.53680        2.13317
C         -8.12715       -4.08460        3.36954
C         -8.57820       -3.15028        4.24162
C         -9.82377       -2.46945        4.02435
N        -10.85828       -1.97193        3.94294
C         -7.99178       -2.97567        5.52586
N         -7.52125       -2.85204        6.57941
C         -8.87775       -3.88134        0.95729
C         -8.30061       -2.59514        0.72495
S         -6.63096       -2.53282        0.26960
C         -8.84183       -1.32554        0.65831
C        -10.18818       -1.04486        0.90030
C        -10.54522        0.32784        0.71451
O        -11.85674        0.53051        1.08805
C        -12.71587        1.04567        0.08534
C         -9.58877        1.35156        0.35404
O         -9.73549        2.71707        0.23894
C        -10.94900        3.31124       -0.16707
C         -8.21274        1.04201        0.15343
C         -7.89193       -0.31334        0.28933
C         -6.63866       -0.82313        0.04338
C         -5.43888       -0.21271       -0.39493
C         -4.54944        0.21653        0.51059
C         -3.26408        0.66230        0.14194
N         -2.67118        0.13810       -0.98493
C         -1.42816        0.67067       -1.08310
C         -0.27708        0.63520       -1.88897
C          0.56795        1.52077       -1.26486
N          0.02357        2.01639       -0.11358
C         -1.22979        1.50028       -0.02789
C         -2.38079        1.51273        0.78247
C          1.89333        1.84494       -1.50999
C          2.24121        2.87130       -2.28523
C          3.60359        3.18223       -2.56746
S          3.88077        4.60550       -3.50892
C          4.82229        2.58608       -2.27288
C          4.99861        1.42795       -1.49981
C          6.31270        0.95273       -1.40898
O          6.60434       -0.20915       -0.72776
C          5.57318       -1.19102       -0.62504
C          7.41343        1.65839       -1.97563
O          8.65104        1.08769       -1.77084
C          9.58965        1.33404       -2.80891
C          7.27412        2.88194       -2.66528
C          5.94713        3.28862       -2.83094
C          5.59575        4.45521       -3.46321
C          6.33964        5.51202       -4.03793
C          7.39039        5.34160       -4.84277
C          7.98971        6.43462       -5.56734
C          7.42161        7.08986       -6.61072
C          8.25895        7.73902       -7.65275
C          9.24529        8.63207       -7.43157
C          9.61373        9.05528       -6.10673
N          9.91594        9.37575       -5.04832
C          9.97238        9.26259       -8.49217
N         10.53211        9.74110       -9.36950
C          7.69083        7.22333       -8.94906
C          6.43773        6.59175       -8.68784
C          5.74540        5.92157       -9.69284
C          6.27940        5.91390      -10.97998
C          7.49690        6.54829      -11.25086
C          8.21658        7.19739      -10.23738
C          6.11499        6.79021       -7.24383
C          4.86495        7.00215       -6.75794
C          3.68296        6.73350       -7.51120
N          2.70988        6.51161       -8.09956
C          4.61957        7.67150       -5.52662
N          4.37906        8.22574       -4.53160
H         -7.17695       -8.45215        2.65322
H         -5.06533       -8.40101        3.91962
H         -4.25427       -6.31256        4.96693
H         -5.56637       -4.22655        4.81431
H         -9.19282       -4.40674        0.05735
H        -10.91158       -1.78412        1.22177
H        -13.49704        0.34042       -0.20294
H        -12.18893        1.30078       -0.83163
H        -13.22227        1.91182        0.52432
H        -10.81527        4.39076       -0.28624
H        -11.69306        3.20109        0.61745
H        -11.25961        2.95684       -1.15528
H         -7.49194        1.81726       -0.08336
H         -5.25499       -0.17271       -1.46475
H         -4.78068        0.20290        1.57271
H         -3.03169       -0.53987       -1.64376
H         -0.07047        0.04812       -2.77341
H          0.44610        2.62954        0.57310
H         -2.53781        2.05776        1.70223
H          2.55441        1.17149       -1.01825
H          1.45616        3.49093       -2.72159
H          4.24902        0.90150       -0.95476
H          5.16647       -1.19017        0.39173
H          6.02818       -2.16587       -0.81570
H          4.75816       -1.08316       -1.35017
H         10.44493        0.67535       -2.64652
H          9.95338        2.36525       -2.76800
H          9.16476        1.10697       -3.79397
H          8.11752        3.45327       -3.01197
H          5.98263        6.51158       -3.83640
H          7.84723        4.37020       -5.01273
H          9.04985        6.54897       -5.34164
H          4.81534        5.39168       -9.51225
H          5.74682        5.40361      -11.78259
H          7.89942        6.51930      -12.26161
H          9.17246        7.63995      -10.49163
