124

C         -6.22509       -9.29408        4.78335
C         -5.05013      -10.03879        4.64045
C         -4.37307      -10.08622        3.41513
C         -4.88449       -9.43024        2.29323
C         -6.05704       -8.70199        2.42546
C         -6.71395       -8.60547        3.68222
C         -7.80373       -7.58422        3.55476
C         -8.95420       -7.54151        4.25916
C         -9.27130       -8.52080        5.25191
N         -9.52686       -9.33277        6.02989
C         -9.97627       -6.60482        3.94556
N        -10.79930       -5.83510        3.68726
C         -7.46330       -6.81922        2.32158
C         -6.78293       -7.81835        1.47383
C         -6.99195       -8.01529        0.15262
C         -7.94867       -7.23812       -0.56335
N         -8.75755       -6.62917       -1.12724
C         -6.32286       -9.03290       -0.57284
N         -5.75270       -9.85010       -1.17430
C         -7.42533       -5.46990        2.20943
C         -6.67722       -4.71513        1.22220
C         -5.51332       -4.97604        0.51373
C         -5.12755       -3.91230       -0.37908
N         -4.06351       -4.01616       -1.20307
C         -3.43544       -5.19547       -1.14872
C         -3.76137       -6.21021       -0.26340
C         -2.97258       -7.48082       -0.33736
N         -4.79947       -6.14261        0.61437
C         -5.91488       -2.78402       -0.32274
S         -7.20237       -3.09939        0.82302
C         -5.86924       -1.49401       -0.96325
C         -5.00217       -1.00448       -1.87540
C         -3.85054       -1.58790       -2.56062
C         -2.60966       -1.13047       -2.24056
C         -1.42059       -1.75428       -2.80393
C         -0.09153       -1.51175       -2.63136
C          0.68208       -0.50458       -1.79114
C          1.03684        0.76438       -2.60906
N         -0.10825        1.62322       -2.91547
C          0.07848       -0.07146       -0.42796
N         -0.12502       -1.16779        0.51622
C          0.58106       -2.52240       -3.47121
C          1.86535       -2.66911       -3.84954
C          2.28024       -3.74035       -4.86139
C          1.22075       -4.81009       -5.10500
C         -0.06570       -4.63950       -4.74640
C         -0.41315       -3.43616       -4.03252
C         -1.60671       -2.92089       -3.70459
C         -2.93556       -3.33026       -4.08957
C         -3.98796       -2.66245       -3.57420
C          3.65995       -4.33461       -4.66574
C          4.42928       -4.58705       -3.59256
C          4.05553       -4.44658       -2.22644
C          4.83059       -4.05144       -1.15354
C          4.09988       -4.02748        0.09814
N          4.67910       -3.69263        1.28586
C          6.00500       -3.44339        1.14402
C          6.72077       -3.46530       -0.06106
C          8.20564       -3.24812       -0.01210
N          6.15937       -3.74347       -1.26956
C          2.77843       -4.41691       -0.03090
S          2.53482       -5.00391       -1.64426
C          1.65453       -4.53070        0.84645
C          1.43721       -3.89729        2.00874
C          2.25410       -2.89279        2.65220
C          2.79539       -2.95161        3.88705
C          4.01166       -2.17346        4.22657
C          4.17763       -0.83485        4.14848
C          3.10911        0.03086        3.77827
N          2.24635        0.76389        3.52169
C          5.38335       -0.19141        4.54182
N          6.38267        0.31820        4.84167
C          4.93517       -3.16412        4.85947
C          4.16939       -4.29590        5.26509
C          4.79440       -5.36135        5.90127
C          6.17359       -5.30156        6.12903
C          6.92810       -4.20883        5.68905
C          6.31371       -3.13803        5.04025
C          2.74320       -4.08134        4.84362
C          1.63256       -4.63684        5.37969
C          1.68983       -5.66123        6.36235
N          1.72908       -6.50338        7.15919
C          0.32168       -4.15547        5.08390
N         -0.75583       -3.78630        4.86421
H         -6.69318       -9.24132        5.76104
H         -4.63779      -10.56504        5.50027
H         -3.42978      -10.62433        3.34239
H         -4.33079       -9.46609        1.36319
H         -7.90248       -4.86814        2.98149
H         -2.63325       -5.31299       -1.86953
H         -3.42901       -8.15847       -1.06396
H         -2.92938       -7.95868        0.64112
H         -1.94227       -7.28240       -0.64911
H         -6.63075       -0.78396       -0.63769
H         -5.15182        0.03647       -2.16801
H         -2.49547       -0.33444       -1.51769
H          1.64059       -0.98108       -1.53457
H          1.53796        0.48268       -3.54162
H          1.75768        1.36453       -2.03907
H          0.07585        2.13567       -3.77725
H         -0.93310        1.05356       -3.10298
H         -0.86287        0.46769       -0.55077
H          0.76049        0.64437        0.04855
H         -0.73669       -1.87091        0.10335
H          0.76376       -1.62812        0.68732
H          2.63263       -1.98325       -3.50988
H          2.35788       -3.19640       -5.81537
H          1.50966       -5.71480       -5.63394
H         -0.81941       -5.39239       -4.94673
H         -3.07537       -4.16175       -4.76890
H         -4.99878       -2.97450       -3.81897
H          4.13623       -4.55773       -5.62461
H          5.45316       -4.91727       -3.77218
H          6.52142       -3.23352        2.07589
H          8.68037       -4.09011        0.50318
H          8.44109       -2.32519        0.52775
H          8.62867       -3.17669       -1.01793
H          0.85530       -5.19584        0.51623
H          0.48115       -4.10378        2.48277
H          2.58888       -2.11155        1.96947
H          4.26211       -6.24994        6.22210
H          6.67064       -6.12223        6.64328
H          8.00413       -4.19528        5.85318
H          6.93711       -2.32547        4.68359
