100

C         13.42826       -6.14056        1.42979
S         14.76912       -7.21890        1.43588
C         13.74746       -8.60029        1.37827
C         12.42350       -8.23441        1.34667
C         12.23413       -6.82045        1.39046
N         11.02525       -6.20669        1.37369
C          9.96587       -7.07216        1.25431
C         10.19123       -8.52414        1.22043
N          9.20549       -9.51127        1.05350
C          8.31861       -9.74257        2.18269
N         11.41568       -9.13249        1.27065
N          8.67317       -6.44876        1.14645
C          7.59561       -7.22259        0.52851
C          8.47978       -5.07059        1.35491
C          7.31403       -4.40399        1.45586
N          7.08322       -3.03472        1.53714
C          6.71857       -2.26649        0.44991
S          7.13457       -2.72970       -1.17628
C          6.37803       -1.37986       -1.83949
N          6.38153       -1.16498       -3.25456
O          5.36416       -0.64568       -3.73334
O          7.40501       -1.46386       -3.88217
C          5.78583       -0.57663       -0.90162
C          6.03644       -1.04580        0.43521
C          5.60212       -0.30356        1.59482
C          5.56718        1.04124        1.61846
C          5.12361        1.90821        2.68471
C          3.90183        1.98694        3.23985
C          3.51570        3.04176        4.14787
C          2.21193        3.03103        4.47152
C          1.48444        1.92253        3.88237
S          2.54935        0.93600        2.89797
C          0.17434        1.65673        4.08836
C         -0.75701        2.48262        4.83123
C         -1.94071        1.89764        5.05367
C         -2.01355        0.54125        4.56298
S         -0.63710        0.20208        3.52454
C         -2.91146       -0.42255        4.80969
C         -4.06198       -0.33554        5.66016
C         -5.28887       -1.00195        5.50513
C         -5.43297       -2.00890        4.49617
N         -5.40852       -2.86448        3.71246
C         -6.21179       -0.57032        6.47782
C         -5.64748        0.19804        7.43494
S         -4.03475        0.51854        7.18393
S         -6.68469        0.63835        8.68629
C         -7.92882       -0.18097        7.90034
C         -7.56948       -0.76542        6.73797
C         -8.64317       -1.37905        6.05879
C         -8.56876       -1.96835        4.76250
N         -8.42532       -2.41683        3.70529
C         -9.80461       -1.34029        6.83791
S         -9.53103       -0.38823        8.29249
C        -11.11254       -1.94382        6.62546
S        -11.92470       -2.67840        7.98347
C        -13.30197       -3.08150        7.07089
C        -13.15003       -2.71828        5.76097
C        -11.88518       -2.09273        5.48070
N        -11.52581       -1.68132        4.23286
C        -12.49206       -1.93246        3.27691
C        -13.77489       -2.55663        3.60383
N        -14.71700       -2.80659        2.58431
C        -16.07236       -3.15088        2.96938
N        -14.12190       -2.95469        4.85393
N        -12.17569       -1.56997        1.92181
C        -13.25801       -1.01073        1.11020
C        -10.88128       -1.66000        1.43357
C        -10.38867       -1.34554        0.23253
H         13.58498       -5.07326        1.44624
H         14.16199       -9.59542        1.35716
H          9.78471      -10.34722        0.92931
H          8.56211      -10.69398        2.66699
H          7.29729       -9.84369        1.79825
H          8.33481       -8.94762        2.93301
H          6.96980       -7.67090        1.30496
H          7.93740       -7.96735       -0.19325
H          6.93319       -6.57788       -0.06191
H          9.40486       -4.49996        1.40815
H          6.37356       -4.94911        1.45514
H          6.54546       -2.82342        2.37708
H          5.23443        0.32298       -1.15365
H          5.28372       -0.85990        2.47286
H          5.94023        1.60286        0.76196
H          5.85292        2.67517        2.94643
H          4.19692        3.79122        4.50359
H          1.77013        3.75591        5.13328
H         -0.53334        3.48916        5.15391
H         -2.75002        2.40116        5.56212
H         -2.77506       -1.37305        4.28989
H        -14.15001       -3.57266        7.52562
H        -14.30053       -3.45542        1.91881
H        -16.75937       -2.58609        2.32988
H        -16.33209       -2.89245        4.00122
H        -16.26177       -4.21555        2.80773
H        -14.06610       -0.57319        1.70507
H        -13.65801       -1.77613        0.43412
H        -12.89279       -0.19013        0.48248
H        -10.19065       -2.07893        2.15665
H        -10.99538       -0.94527       -0.56897
H         -9.32981       -1.49078        0.02933
