102

C         -9.50646        1.93524       -2.37233
C         -9.22922        2.96344       -3.29524
F        -10.01219        4.05010       -3.33401
C         -8.19197        2.84918       -4.19631
F         -7.92006        3.83695       -5.06992
C         -7.45618        1.67986       -4.24664
C         -7.80054        0.61359       -3.39410
C         -8.79792        0.71048       -2.38272
C         -9.06670       -0.43865       -1.51152
C         -8.47619       -1.68078       -1.76736
C         -7.67954       -1.68304       -2.91324
C         -7.20911       -0.60010       -3.63569
C         -7.59052       -3.05965       -3.32439
O         -8.32986       -3.64834       -4.09793
C         -7.40060       -3.78727       -2.12691
C         -8.45454       -3.16812       -1.29236
C         -9.46850       -3.97489       -0.86379
C        -10.77037       -3.51958       -0.52060
N        -11.87155       -3.24833       -0.27234
C         -9.37061       -5.42228       -0.97398
N         -9.29275       -6.56625       -1.10580
C         -6.61241       -4.83103       -2.37255
N         -5.90141       -5.18923       -3.52541
C         -5.52915       -4.72548       -4.78541
S         -4.12043       -5.68887       -5.24930
C         -3.74644       -4.70455       -6.54480
N         -2.54602       -4.96833       -7.28531
O         -2.60589       -4.80278       -8.50919
O         -1.54425       -5.33290       -6.65292
C         -4.70874       -3.75978       -6.79161
C         -5.83155       -3.81048       -5.85123
C         -6.94043       -2.84394       -6.12476
C         -8.27195       -3.05916       -6.35049
C         -9.30428       -2.01144       -6.23602
S         -9.70594       -1.12259       -7.65519
C        -10.31542        0.20227       -6.71392
C        -10.90013       -0.34735       -5.58103
C        -10.37943       -1.69377       -5.34771
C        -11.04319       -2.52904       -4.28279
C        -11.83942       -1.75092       -3.22538
C        -12.66115       -0.56719       -3.71629
C        -13.16585        0.17113       -2.47599
O        -12.75983        1.26406       -2.09169
C        -11.89493        0.35404       -4.67159
C        -10.32465        1.54674       -7.20575
C         -9.30377        2.09809       -7.88786
C         -9.21991        3.48883       -8.28046
C         -7.97633        3.86299       -8.62883
C         -6.99965        2.79922       -8.46645
S         -7.81621        1.28474       -8.32772
C         -5.68586        2.92924       -8.22591
C         -4.99317        4.18670       -8.13561
C         -3.91433        4.12636       -7.34717
C         -3.65177        2.80298       -6.81457
S         -4.64358        1.62076       -7.63862
C         -2.86441        2.46454       -5.77967
C         -2.11838        3.39993       -4.97150
C         -2.02413        3.33841       -3.61859
C         -1.30939        4.52497       -3.20075
C         -0.99055        4.99311       -1.97920
C         -0.31344        6.28060       -1.94595
C          0.10019        7.04395       -0.91522
C          0.69272        8.29268       -1.43044
C          0.66784        8.27248       -2.78120
C          0.03527        7.03742       -3.15887
C         -0.25785        6.55728       -4.37681
C         -0.93608        5.28424       -4.39910
C         -1.36745        4.57050       -5.44337
C          1.24507        9.39510       -0.68793
C          0.60066       10.00640        0.31268
H        -10.35242        2.08241       -1.70690
H         -6.67790        1.59067       -5.00127
H         -9.82008       -0.33038       -0.73476
H         -6.47958       -0.72691       -4.41914
H         -6.53521       -5.61747       -1.62462
H         -5.40674       -6.06468       -3.32951
H         -4.63855       -3.06147       -7.62063
H         -6.60580       -1.80748       -6.14995
H         -8.64149       -4.07845       -6.37959
H        -10.35902       -3.16709       -3.73913
H        -11.73702       -3.20473       -4.79336
H        -11.17013       -1.39683       -2.44295
H        -12.51527       -2.45260       -2.72051
H        -13.55451       -0.94469       -4.22704
H        -13.91709       -0.37362       -1.87412
H        -11.37653        1.14641       -4.12694
H        -12.64084        0.87348       -5.28835
H        -11.15033        2.18361       -6.89581
H        -10.06585        4.16082       -8.24544
H         -7.71213        4.87182       -8.90682
H         -5.35938        5.09854       -8.58225
H         -3.34685        5.00687       -7.10488
H         -2.82987        1.42758       -5.44964
H         -2.46575        2.60841       -2.95905
H         -1.23835        4.47846       -1.06154
H          0.01923        6.80961        0.13333
H          1.01031        9.03692       -3.45971
H         -0.04401        7.08796       -5.29480
H         -1.23641        4.82972       -6.48141
H          2.22180        9.75638       -1.00259
H         -0.39394        9.70156        0.62338
H          1.04914       10.85464        0.81911
