80

C         -0.90529        2.20759        1.18492
C         -0.18558        1.50670        0.22510
F          0.62257        2.18097       -0.60363
C         -0.28555        0.11873        0.12530
F          0.44570       -0.52357       -0.79818
C         -1.12036       -0.60030        0.98648
C         -1.83222        0.11126        1.96058
C         -1.72568        1.49867        2.05187
F         -2.41068        2.16236        2.99266
F         -2.61479       -0.54033        2.83470
C         -1.21136       -2.06527        0.91689
C         -0.36931       -2.80222        1.66209
C         -0.46117       -4.23738        1.69927
C         -1.39552       -4.97792        0.83621
C         -2.28058       -4.40638        0.02125
S         -2.46779       -2.67825       -0.12920
C         -1.16504       -6.34673        1.08062
C         -0.18826       -6.48649        2.03644
C          0.11009       -7.82316        2.34157
C         -0.68547       -8.66634        1.57715
S         -1.76165       -7.80243        0.52100
C          0.23564       -5.16049        2.42760
C          1.29261       -4.92148        3.38355
C          1.29053       -3.94150        4.30332
C          2.37504       -3.74227        5.20493
C          3.51616       -4.51415        5.42438
C          4.33606       -3.96649        6.42953
C          3.79241       -2.81914        6.95030
S          2.36240       -2.34510        6.25412
C          4.62052       -2.36698        7.99638
C          5.67913       -3.23952        8.15007
C          5.57431       -4.29448        7.14062
C          6.40641       -5.31982        6.85894
C          6.15453       -6.10463        5.58182
N          5.94557       -6.75569        4.52234
C          7.62430       -5.63001        7.71388
N          8.63464       -5.88733        8.42313
C          6.53874       -2.81742        9.18779
C          6.08229       -1.63104        9.77554
S          4.60584       -1.07299        9.03313
C          6.63578       -0.86959       10.85091
C          6.20321       -1.14286       12.09651
C          6.68907       -0.41720       13.23868
C          7.65336        0.68567       13.11514
C          8.17856        1.09984       11.96256
S          7.80542        0.36638       10.42534
C          7.87296        1.17260       14.41952
C          7.11381        0.45446       15.31149
C          7.28369        0.85637       16.64510
C          8.19813        1.89909       16.70574
S          8.80931        2.35185       15.14265
C          6.37934       -0.53625       14.56252
C          5.44541       -1.45011       15.17092
C          5.52587       -2.78538       15.06104
C          4.58648       -3.73539       15.67941
C          4.35695       -4.96692       15.05096
F          4.96632       -5.25134       13.88829
C          3.49159       -5.91018       15.60629
F          3.28298       -7.07618       14.98035
C          2.84011       -5.65981       16.80501
C          3.07231       -4.45210       17.44632
C          3.93725       -3.50254       16.89949
F          4.14455       -2.36370       17.57911
F          2.45662       -4.20099       18.60927
H         -0.82166        3.28587        1.26095
H          0.39732       -2.32035        2.25944
H         -2.94576       -5.01661       -0.58151
H          0.84250       -8.17163        3.05798
H         -0.69784       -9.74797        1.57739
H          2.11373       -5.63143        3.31728
H          0.44429       -3.26286        4.37497
H          3.69755       -5.43225        4.88307
H          7.44711       -3.31174        9.51415
H          5.45900       -1.91518       12.26684
H          8.87916        1.92882       11.94425
H          6.79706        0.42653       17.51125
H          8.54984        2.42212       17.58456
H          4.66538       -0.97521       15.76183
H          6.32372       -3.23446       14.47022
H          2.16856       -6.39395       17.23483
