76

C          1.23515        4.05861       -6.31920
O          1.08349        2.78318       -6.76639
C          2.29662        2.18346       -6.65874
C          3.22512        3.06269       -6.15130
C          2.53854        4.28480       -5.93261
C          3.03387        5.52610       -5.43269
C          4.29952        5.75063       -5.04213
C          4.78754        7.01621       -4.54569
C          4.79584        8.14280       -5.27235
C          5.32153        9.41615       -4.82077
C          4.92182       10.13444       -3.75970
C          5.40976       11.45872       -3.45074
C          4.70262       12.08264       -2.49682
C          3.60614       11.28812       -1.96708
S          3.68319        9.65437       -2.63018
C          2.60185       11.71839       -1.17932
C          2.35846       13.08574       -0.75642
C          1.11376       13.28958       -0.29598
C          0.30408       12.08967       -0.27238
S          1.27994       10.68744       -0.63069
C         -1.02121       12.05202       -0.05963
C         -1.82318       10.86134        0.02025
C         -2.82273       10.42700       -0.75642
C         -3.26732        9.17150       -0.25241
C         -2.48524        8.85570        0.95467
O         -2.60346        7.91956        1.71125
N         -1.61617        9.94371        1.03424
C         -4.21132        8.74757       -1.07214
O         -4.50952        9.66446       -2.11486
C         -3.62997       10.73279       -1.93810
O         -3.57471       11.73970       -2.61898
C         -4.95982        7.51753       -1.03107
C         -4.43719        6.28134       -1.06749
C         -5.18264        5.05637       -0.88444
C         -4.40362        3.97208       -0.73910
C         -2.97928        4.26298       -0.80715
S         -2.74334        5.93625       -1.30955
C         -1.96518        3.44849       -0.45586
C         -2.07405        2.10269        0.07636
C         -0.93072        1.63460        0.60047
C          0.17164        2.56760        0.51039
S         -0.27295        3.94789       -0.46321
C          1.35610        2.40309        1.12163
C          2.40059        3.34886        1.02371
S          2.63488        4.70339        2.07717
C          4.00026        5.30865        1.17131
C          4.23005        4.44954        0.15495
C          3.36651        3.38059        0.08585
O          3.54634        2.49515       -0.93296
C          4.60788        3.10900       -1.56813
N          5.05106        2.46325       -2.76748
O          5.96542        3.02550       -3.38684
O          4.50643        1.40151       -3.09455
C          5.07802        4.27777       -0.95265
H          0.33969        4.66427       -6.34330
H          2.34046        1.15124       -6.97664
H          4.26603        2.83602       -5.96916
H          2.31851        6.34566       -5.36485
H          5.03802        4.95335       -5.05868
H          5.20749        6.99907       -3.54280
H          4.43829        8.12989       -6.30085
H          6.06017        9.84460       -5.49652
H          6.24245       11.90816       -3.97533
H          4.91550       13.09054       -2.17002
H          3.08542       13.87849       -0.86457
H          0.73782       14.25478        0.01543
H         -1.56644       12.98445        0.06730
H         -0.90555       10.01817        1.74750
H         -6.03414        7.64089       -0.91868
H         -6.26168        5.03326       -0.81757
H         -4.79525        2.98360       -0.54765
H         -2.99841        1.54339        0.08725
H         -0.83421        0.66608        1.07132
H          1.54273        1.51781        1.72099
H          4.49448        6.22891        1.45024
H          5.89160        4.90150       -1.29546
