79

C         -5.14330       -2.46478       -4.28750
C         -4.26205       -1.97905       -3.31032
C         -3.05330       -1.43253       -3.75229
C         -2.72098       -1.34533       -5.10151
C         -3.62300       -1.83491       -6.07555
C         -4.82062       -2.38845       -5.64828
N         -3.33472       -1.77335       -7.39329
C         -2.14575       -1.22316       -7.72271
C         -1.26759       -0.74621       -6.77257
N         -1.53957       -0.80013       -5.45137
C         -4.59759       -2.07213       -1.88561
O         -5.39816       -3.14031       -1.57430
C         -5.67539       -3.13805       -0.23119
C         -5.00709       -2.05971        0.31582
C         -4.31453       -1.36811       -0.72492
C         -3.51487       -0.14996       -0.46877
F         -2.95115        0.40674       -1.56295
F         -4.27573        0.81773        0.10935
F         -2.50634       -0.40943        0.40614
C         -6.49208       -4.11725        0.39550
C         -7.17680       -3.83934        1.51919
C         -7.99042       -4.81141        2.13350
N         -8.20512       -4.73890        3.50845
C         -9.02384       -5.77590        3.93739
C         -9.33633       -6.48904        2.82140
C         -8.70518       -5.90672        1.72759
S         -9.06676       -6.75178        0.28725
O         -7.80666       -7.33061       -0.13604
O         -9.85898       -5.84119       -0.49919
C        -10.07061       -7.93400        1.17356
C        -10.09832       -7.63092        2.49434
C        -10.70082       -9.03369        0.49653
C        -11.43200       -9.96864        1.12110
C        -12.02308      -11.03176        0.39009
O        -11.87999      -11.14443       -0.96932
C        -12.52546      -12.25405       -1.43390
C        -13.11783      -12.86415       -0.34478
C        -12.80945      -12.09654        0.81942
C        -13.26769      -12.42412        2.19332
F        -12.83949      -11.54933        3.13886
F        -14.62337      -12.44781        2.27358
F        -12.83501      -13.65269        2.57893
C        -12.52787      -12.64731       -2.79542
C        -12.43424      -11.72339       -3.76564
C        -12.42663      -12.05346       -5.17577
C        -12.32557      -11.18187       -6.19388
C        -12.33099      -11.56842       -7.58361
C        -12.25146      -10.53387       -8.43228
C        -12.16832       -9.23701       -7.77939
S        -12.18976       -9.44910       -6.02983
C        -12.08961       -8.03964       -8.39246
C        -12.07461       -7.81429       -9.82801
C        -12.00219       -6.52267      -10.17844
C        -11.95218       -5.62982       -9.05022
S        -11.99383       -6.49353       -7.54140
C        -11.88426       -4.29814       -9.11942
H         -6.09432       -2.91341       -4.00223
H         -2.31337       -1.07184       -3.04518
H         -5.51764       -2.77430       -6.39000
H         -1.91676       -1.17614       -8.78108
H         -0.31580       -0.30528       -7.04453
H         -5.00494       -1.78873        1.36434
H         -6.53001       -5.08957       -0.08208
H         -7.12987       -2.85063        1.96744
H         -7.79806       -4.04623        4.12099
H         -9.28368       -5.88376        4.98240
H        -10.63180       -8.19765        3.24392
H        -10.54760       -9.07158       -0.58370
H        -11.57735       -9.93330        2.19290
H        -13.72078      -13.76147       -0.37989
H        -12.61003      -13.70415       -3.02278
H        -12.37644      -10.66932       -3.49658
H        -12.51900      -13.11281       -5.40874
H        -12.39952      -12.60003       -7.90046
H        -12.25144      -10.65780       -9.50528
H        -12.12012       -8.61306      -10.55356
H        -11.98338       -6.17253      -11.20099
H        -11.86147       -3.77859      -10.07063
H        -11.84973       -3.68884       -8.22133
