78

C         -1.48321       -2.10003       -1.36557
C         -2.16926       -2.84855       -0.40983
C         -1.97051       -2.51815        0.94225
C         -1.09865       -1.50953        1.34401
C         -0.38183       -0.78938        0.35911
C         -0.59094       -1.09502       -0.97644
N          0.48992        0.18416        0.68899
C          0.63539        0.43646        2.00695
C         -0.06880       -0.25626        2.96937
N         -0.94257       -1.23800        2.65643
C         -3.07813       -3.93574       -0.77824
O         -4.12529       -4.09236        0.08459
C         -4.92038       -5.13241       -0.32688
C         -4.35067       -5.63982       -1.48239
C         -3.16910       -4.88431       -1.78361
C         -2.27920       -5.15877       -2.93764
F         -1.18021       -4.37004       -3.00074
F         -1.82812       -6.44059       -2.92233
F         -2.93911       -4.99802       -4.11502
C         -6.09271       -5.56182        0.35763
C         -6.53143       -4.90739        1.44354
C         -7.70091       -5.33169        2.14227
O         -8.42347       -6.44109        1.76611
C         -9.48480       -6.64098        2.60778
C         -9.44893       -5.62988        3.54817
C         -8.33897       -4.78099        3.25200
C         -8.00724       -3.55421        4.01615
F         -6.91445       -2.89635        3.55968
F         -9.03674       -2.66707        3.98935
F         -7.77765       -3.83444        5.32601
C        -10.40314       -7.70858        2.42199
C        -11.09919       -8.23342        3.44186
C        -12.01145       -9.29723        3.24754
N        -12.68688       -9.79996        4.35928
C        -13.53555      -10.83903        4.00224
C        -13.39177      -10.99405        2.65781
C        -12.47121      -10.05337        2.20031
S        -12.25369      -10.20340        0.51154
O        -10.89310      -10.66708        0.34554
O        -12.76510       -8.97062       -0.04802
C        -13.43657      -11.52844        0.40625
C        -13.91378      -11.82680        1.63951
C        -13.78214      -12.21773       -0.81126
C        -13.66263      -11.71591       -2.05178
C        -14.05677      -12.41123       -3.29627
C        -14.53648      -11.70207       -4.42640
C        -14.91795      -12.38308       -5.63797
N        -15.39098      -11.71303       -6.70193
C        -15.49852      -10.36080       -6.60752
C        -15.13699       -9.69258       -5.45974
N        -14.65807      -10.35599       -4.37113
C        -15.24733       -8.26854       -5.33396
N        -15.35285       -7.11582       -5.26598
C        -16.01104       -9.69100       -7.76633
N        -16.42729       -9.13463       -8.69789
C        -14.83531      -13.76015       -5.78484
C        -14.35162      -14.50518       -4.69323
C        -13.94625      -13.82998       -3.41872
N        -13.49511      -14.70951       -2.50588
S        -13.59423      -16.21961       -3.17658
N        -14.20799      -15.83761       -4.66755
H         -1.62815       -2.26715       -2.42890
H         -2.50477       -3.06270        1.71951
H         -0.04825       -0.53601       -1.73518
H          1.33981        1.21776        2.26774
H          0.05096       -0.04241        4.02513
H         -4.73557       -6.47541       -2.05424
H         -6.61967       -6.43319       -0.02578
H         -5.99113       -4.03778        1.80765
H        -10.16542       -5.48464        4.34642
H        -10.48958       -8.08029        1.40695
H        -10.95363       -7.85381        4.45036
H        -12.57300       -9.46057        5.30563
H        -14.13687      -11.34406        4.74621
H        -14.63504      -12.60792        1.84171
H        -14.20153      -13.20921       -0.65579
H        -13.31119      -10.69397       -2.19811
H        -15.12880      -14.25153       -6.70561
