83

C        -11.51709       -0.12092       -4.43862
C        -12.64725       -0.82217       -4.17553
C        -13.63006       -1.10662       -5.16816
N        -14.42372       -1.35628       -5.97222
C        -12.91739       -1.42592       -2.91242
N        -13.14158       -1.91635       -1.88771
C        -11.09694        0.38041       -5.78197
C         -9.72235        0.62372       -5.75435
C         -8.99237        1.05797       -6.85674
C         -9.68673        1.27192       -8.06948
C        -11.07345        1.06195       -8.09639
C        -11.79953        0.62971       -6.95774
S        -11.72493        1.39693       -9.66189
C        -10.20769        1.80677      -10.27585
C         -9.20215        1.70544       -9.35196
Br        -9.93067        2.35308      -12.04626
C         -9.17835        0.41167       -4.40136
O         -8.01959        0.57929       -4.08413
C        -10.35267        0.04889       -3.53460
C        -10.28705       -0.01151       -2.19511
C         -9.09104       -0.10005       -1.38390
C         -8.69558        0.80356       -0.45314
O         -7.61921        0.56036        0.41535
C         -7.05570       -0.66697        0.30972
C         -7.45154       -1.59212       -0.67729
C         -6.75584       -2.77215       -0.62851
S         -5.62937       -2.75776        0.67233
C         -6.08207       -1.16101        1.13958
O         -8.43737       -1.32531       -1.55964
C         -9.37495        2.05821       -0.20186
C         -8.77341        3.25364       -0.30757
C         -9.45225        4.49768       -0.10884
S         -8.91034        5.84370       -1.05237
C        -10.09874        6.90651       -0.42702
C        -10.85727        6.27348        0.54195
C        -10.48447        4.90099        0.73178
S        -11.25695        3.86332        1.94790
C        -12.76784        4.68306        2.16343
O        -13.88529        4.25121        1.96926
C        -12.39688        6.01454        2.77298
O        -12.35630        6.28189        3.95645
S        -12.15916        7.08767        1.43191
C        -10.16846        8.24650       -0.91934
C        -10.93884        8.59045       -1.96354
C        -11.15795        9.94649       -2.41605
C        -12.19464       10.06382       -3.26195
C        -12.86910        8.80203       -3.52542
S        -11.89364        7.47249       -2.90413
C        -14.10650        8.62960       -4.02749
C        -15.04259        9.67061       -4.40757
C        -16.30646        9.23448       -4.52691
C        -16.45448        7.81545       -4.27437
S        -14.89250        7.05227       -4.14235
C        -17.63154        7.19177       -4.11849
C        -17.74292        5.80830       -3.79855
O        -17.78871        5.37403       -2.49736
C        -17.94140        4.01178       -2.44686
C        -17.99503        3.56480       -3.75576
C        -17.83783        4.69143       -4.62169
C        -17.78531        4.63137       -6.10104
F        -17.64257        5.84332       -6.69366
F        -16.75261        3.85936       -6.53041
F        -18.91693        4.08056       -6.61447
C        -17.99878        3.31188       -1.21219
C        -18.57502        2.11106       -1.08063
H         -7.92296        1.23200       -6.77844
H        -12.87509        0.51542       -7.04517
H         -8.16362        1.93052       -9.56349
H        -11.17878       -0.13750       -1.58990
H         -6.85573       -3.63689       -1.26885
H         -5.61513       -0.68746        1.99099
H        -10.42839        1.96170        0.04266
H         -7.73356        3.28854       -0.62986
H         -9.63870        9.00906       -0.35586
H        -10.57085       10.78357       -2.06274
H        -12.52768       11.00996       -3.66514
H        -14.76034       10.70668       -4.53215
H        -17.14589        9.87602       -4.75878
H        -18.55746        7.75561       -4.16133
H        -18.10388        2.53307       -4.06545
H        -17.56784        3.80290       -0.34355
H        -19.05464        1.58966       -1.90184
H        -18.59799        1.62563       -0.10894
