69

C          1.56229       -3.24678        4.27947
S          0.55456       -2.66888        3.01499
C          0.78437       -4.06834        2.03161
C          1.55446       -4.98883        2.70925
C          1.97217       -4.48656        3.94154
C          2.77875       -5.43968        4.60556
C          2.94292       -6.62331        3.87163
C          3.74019       -7.82263        4.27855
S          2.12268       -6.66571        2.31258
C          0.16822       -4.27281        0.74634
O         -0.21391       -5.54167        0.37767
C         -0.77832       -5.53273       -0.86460
C         -0.76848       -4.22538       -1.30583
C         -0.16303       -3.40916       -0.29531
C          0.02985       -1.95154       -0.49071
F          0.58523       -1.28681        0.54513
F          0.82541       -1.70918       -1.56852
F         -1.15591       -1.33837       -0.75696
C         -1.25947       -6.67580       -1.55215
C         -1.19765       -7.90034       -1.00569
C         -1.64327       -9.06028       -1.70264
S         -1.61100       -9.18595       -3.42826
C         -2.20341      -10.79101       -3.46109
C         -2.44524      -11.22739       -2.18479
C         -2.10721      -10.25275       -1.24339
C         -2.34219      -10.76758        0.06001
C         -2.83227      -12.08156        0.05460
C         -3.15406      -12.92905        1.24423
S         -3.07320      -12.79374       -1.53261
C         -2.43903      -11.53505       -4.66495
O         -3.43743      -12.47197       -4.72064
C         -3.46946      -13.05566       -5.95536
C         -2.47278      -12.46698       -6.71129
C         -1.80405      -11.49971       -5.90186
C         -0.64777      -10.67972       -6.33729
F         -0.93500       -9.35533       -6.38918
F          0.42818      -10.83356       -5.52616
F         -0.23492      -11.02260       -7.58863
C         -4.37568      -14.07336       -6.34655
C         -5.30459      -14.56316       -5.50879
C         -6.21801      -15.58229       -5.91418
S         -6.74963      -15.76011       -7.56523
C         -7.72489      -17.12641       -7.23119
C         -7.68988      -17.42078       -5.90155
C         -6.86604      -16.54265       -5.19961
C         -6.88861      -16.92037       -3.82511
C         -7.70872      -18.03361       -3.57161
C         -7.96412      -18.69525       -2.25458
S         -8.51633      -18.71710       -4.97708
H          1.76120       -2.66131        5.16515
H          3.23284       -5.29201        5.57850
H          4.16161       -7.68837        5.28057
H          4.57262       -7.98438        3.58600
H          3.11632       -8.72219        4.29781
H         -1.13899       -3.88556       -2.26241
H         -1.67108       -6.51338       -2.54242
H         -0.80717       -8.03499       -0.00021
H         -2.15863      -10.22184        0.97821
H         -3.06635      -12.35281        2.17089
H         -2.46088      -13.77451        1.30634
H         -4.17617      -13.31722        1.18580
H         -2.23770      -12.71480       -7.73922
H         -4.27688      -14.44574       -7.36159
H         -5.36534      -14.20618       -4.48239
H         -8.28202      -17.64578       -8.00049
H         -6.33554      -16.41785       -3.04004
H         -7.41984      -18.19349       -1.44918
H         -7.64092      -19.74176       -2.27950
H         -9.03147      -18.66649       -2.00971
