78

O         -4.74116        0.17978       -2.07915
C         -3.61204        0.81587       -2.58554
N         -3.26827        0.30071       -3.76777
C         -4.19823       -0.68464       -4.03152
C         -5.09351       -0.74989       -2.99862
C         -4.20525       -1.49828       -5.22295
O         -5.05460       -2.35246       -5.45451
C         -2.95004        1.89288       -1.88984
C         -1.86546        2.45669       -2.46312
C         -1.15650        3.54924       -1.84528
C         -1.55104        4.09804       -0.54069
C         -2.58772        3.66852        0.17497
S         -3.63684        2.38501       -0.34395
C         -0.64148        5.13265       -0.24577
C          0.26804        5.24912       -1.26581
C          1.18550        6.29569       -1.07756
C          0.93679        6.92504        0.13376
S         -0.41083        6.23794        0.98465
C         -0.05279        4.24453       -2.25524
C          0.65815        4.04568       -3.49303
C          1.97517        4.25864       -3.66040
C          2.71022        4.02627       -4.89508
C          2.32730        3.04252       -5.72853
C          3.02841        2.74431       -6.93953
C          4.25512        3.44190       -7.32931
C          4.80919        4.42948       -6.62507
S          4.13701        5.03228       -5.13286
C          4.66104        2.87149       -8.55020
C          3.77347        1.88709       -8.91825
C          4.07688        1.30271      -10.15683
C          5.23267        1.87008      -10.67403
S          5.89697        3.10255       -9.64778
C          2.75866        1.80497       -7.89340
C          1.61384        0.92540       -7.88979
C          1.58846       -0.30957       -8.41128
C          0.41735       -1.16702       -8.37572
C         -0.72688       -0.76466       -8.96284
C         -1.91238       -1.57468       -8.93890
C         -1.95821       -2.87902       -8.26753
C         -0.92441       -3.44184       -7.64438
S          0.64790       -2.70117       -7.55175
C         -3.27173       -3.36324       -8.42471
C         -4.01697       -2.45007       -9.13210
C         -5.34014       -2.86292       -9.35016
C         -5.54731       -4.10313       -8.76154
S         -4.12465       -4.72947       -7.98621
C         -3.15587       -1.33476       -9.44602
C         -3.54862       -0.17006      -10.19874
C         -4.58401        0.61708       -9.87031
C         -4.92990        1.75030      -10.65609
N         -5.92044        2.59238      -10.38934
C         -5.88890        3.53045      -11.40129
C         -4.87360        3.22427      -12.26856
O         -4.25385        2.10674      -11.81235
C         -6.79494        4.65090      -11.49255
O         -6.76430        5.48188      -12.39550
H         -5.96581       -1.34909       -2.78118
H         -3.38448       -1.29320       -5.92851
H         -1.49374        2.08916       -3.41531
H         -2.82009        4.12507        1.13171
H          1.97351        6.59373       -1.75536
H          1.47051        7.76158        0.56257
H          0.05387        3.67645       -4.31797
H          2.57955        4.59929       -2.82276
H          1.47133        2.42190       -5.49636
H          5.71926        4.90733       -6.97370
H          3.51030        0.53102      -10.66003
H          5.72256        1.63490      -11.60826
H          0.72162        1.30474       -7.38984
H          2.47953       -0.74953       -8.85199
H         -0.78167        0.19744       -9.46345
H         -1.03122       -4.41053       -7.16652
H         -6.10405       -2.31751       -9.88881
H         -6.45837       -4.68502       -8.74229
H         -2.93607        0.05024      -11.07195
H         -5.18648        0.42414       -8.98861
H         -4.48648        3.66348      -13.17654
H         -7.53315        4.71936      -10.67663
