100

C          6.73197       -4.70664        7.92923
C          5.75909       -4.76959        8.92059
F          5.96450       -5.54339        9.99428
C          4.57165       -4.06017        8.80753
C          4.34927       -3.26355        7.68372
C          5.30445       -3.19795        6.65623
C          6.51536       -3.93840        6.77718
C          7.45889       -3.93700        5.72896
C          7.17556       -3.27291        4.54222
C          6.00210       -2.50708        4.47685
C          5.07130       -2.44009        5.50340
C          5.89263       -1.83759        3.17311
O          4.99588       -1.09918        2.82169
C          7.11897       -2.23139        2.40215
C          7.81013       -3.27507        3.18597
C          8.62578       -4.25624        2.72654
C          8.83205       -4.50427        1.33722
N          8.96281       -4.79863        0.22417
C          9.23434       -5.22694        3.57156
N          9.74262       -6.01518        4.25699
C          7.41659       -1.49811        1.31659
C          8.62527       -1.50706        0.51265
C          8.53245       -1.81494       -0.79602
C          9.69335       -1.89741       -1.64280
C         11.03744       -1.55849       -1.16037
C         11.31777       -1.19501        0.09029
S         10.11355       -1.06566        1.34006
C         11.91239       -1.74085       -2.25113
C         11.20280       -2.17945       -3.34344
C         12.00949       -2.41704       -4.46819
C         13.33321       -2.11841       -4.16995
S         13.54970       -1.57775       -2.53405
C          9.81753       -2.28203       -2.94741
C          8.75975       -2.73614       -3.81676
C          8.02937       -3.83310       -3.55774
C          6.95241       -4.33680       -4.40941
C          6.65621       -5.68653       -4.44810
N          5.66054       -6.22245       -5.18035
C          4.92088       -5.35523       -5.89121
N          5.08615       -4.02144       -5.91591
C          6.10817       -3.54701       -5.17027
C          3.82085       -5.89346       -6.68747
C          2.61617       -5.28130       -7.04622
C          1.82893       -6.14178       -7.83844
C          2.46292       -7.34508       -8.05950
S          3.95151       -7.49705       -7.34842
C          1.66784       -8.13546       -8.91218
C          0.54254       -7.42122       -9.24777
C          0.53926       -6.14926       -8.52579
C         -0.46010       -5.25046       -8.44009
C         -0.35580       -4.08743       -7.63082
N         -0.27749       -3.14034       -6.96377
C         -1.70330       -5.46490       -9.10395
N         -2.70290       -5.68331       -9.64908
C         -0.21622       -8.09272      -10.22383
C          0.31827       -9.35191      -10.51716
S          1.78178       -9.63675       -9.61113
C         -0.11014      -10.33669      -11.45476
C         -1.39086      -10.55197      -11.78708
C         -1.66525      -11.24943      -13.08735
O         -0.93253      -11.98824      -13.70978
C         -2.99213      -10.75989      -13.51192
C         -3.60155      -10.99172      -14.73395
C         -4.82349      -10.35689      -14.99198
C         -5.37776       -9.46688      -14.02378
C         -6.58783       -8.81939      -14.30550
C         -7.24790       -9.06359      -15.50441
C         -6.72524       -9.93817      -16.44703
C         -5.51114      -10.57865      -16.19581
F         -8.41217       -8.44908      -15.75031
C         -4.72261       -9.25233      -12.79570
C         -3.54752       -9.93477      -12.52110
C         -2.67003      -10.00028      -11.32348
C         -3.07601       -9.85578      -10.03801
C         -2.27019      -10.25987       -8.93198
N         -1.63579      -10.59526       -8.01925
C         -4.37210       -9.37829       -9.69172
N         -5.42533       -8.98157       -9.41514
H          7.63917       -5.29150        8.05748
H          3.82306       -4.13888        9.58974
H          3.41141       -2.71687        7.60493
H          8.37499       -4.50209        5.86630
H          4.16878       -1.84729        5.38015
H          6.69598       -0.74488        0.98730
H          7.57183       -2.06358       -1.23783
H         12.34036       -0.97424        0.37951
H         11.67912       -2.78311       -5.43251
H         14.19477       -2.19329       -4.81899
H          8.61313       -2.15156       -4.72198
H          8.24401       -4.42813       -2.66927
H          7.23101       -6.41027       -3.87499
H          6.21527       -2.46617       -5.20056
H          2.36804       -4.27404       -6.73043
H         -1.09493       -7.69913      -10.71752
H          0.67327      -10.85928      -12.00681
H         -3.12813      -11.64356      -15.46340
H         -7.03941       -8.12987      -13.59687
H         -7.26647      -10.11649      -17.37098
H         -5.11181      -11.25919      -16.94547
H         -5.15199       -8.55108      -12.08522
