123

C         12.81288        8.92739      -13.49473
C         11.55733        8.93853      -12.94799
C         11.49744        8.45557      -11.58138
C         10.42097        8.38075      -10.65293
C          9.08148        8.93292      -11.01822
C          7.80854        8.43117      -10.77275
C          6.75917        9.23390      -11.30799
C          7.24282       10.28775      -12.04671
S          8.92496       10.46947      -11.80004
C          6.50328       11.23947      -12.92642
Cl         5.10819        8.84243      -11.08531
C         10.61084        7.76775       -9.38980
C         11.84273        7.19860       -9.02845
C         12.92384        7.28731       -9.94922
C         12.75189        7.95445      -11.18874
S         13.94919        8.32941      -12.40019
C         14.22756        6.65340       -9.58623
C         14.90339        6.62558       -8.37214
C         16.10946        5.86203       -8.40251
C         16.39003        5.37800       -9.65894
S         15.09247        5.68007      -10.72609
C         17.59622        4.63289      -10.12918
Cl        17.07210        5.61947       -7.00765
C         11.74714        6.58285       -7.71765
C         10.51872        6.70553       -7.11071
S          9.46859        7.60191       -8.09020
C         10.11189        6.21372       -5.81482
C          8.87251        5.68027       -5.44876
C          8.83173        5.38381       -4.06717
C         10.02706        5.68555       -3.45627
S         11.20350        6.28223       -4.46410
C          9.90395        5.45484       -2.07189
C          8.62839        5.01794       -1.79527
C          7.88701        4.89594       -3.05606
C          6.63995        4.42499       -3.24816
C          6.06451        4.34218       -4.54638
N          5.60141        4.27518       -5.60766
C          5.84318        3.96297       -2.16618
N          5.19508        3.58869       -1.28119
C          8.42646        4.87866       -0.40020
C          9.56902        5.24264        0.31477
S         10.88700        5.61639       -0.75301
C          9.73754        5.29932        1.76933
C         10.54880        6.14344        2.48185
S         11.66644        7.48934        1.98503
C         12.06124        7.64155        3.67383
C         13.08772        8.65895        4.07489
C         11.37316        6.77047        4.53360
C         10.46951        5.89986        3.86056
C          9.61235        4.92701        4.27586
S          8.87288        4.26726        2.84893
C          9.27449        4.45192        5.59720
C          8.88521        3.16103        5.98024
C          8.63323        3.08196        7.37189
C          8.83074        4.29602        7.98741
S          9.28264        5.52658        6.97189
C          8.57624        4.15910        9.36907
C          8.20942        2.85876        9.63128
C          8.22372        2.09675        8.37864
C          7.93189        0.79420        8.19800
C          8.00333        0.18285        6.91756
N          8.06808       -0.31422        5.87111
C          7.54520       -0.04077        9.28313
N          7.22987       -0.71288       10.17580
C          7.93968        2.66254       11.00708
C          8.11429        3.84298       11.73386
S          8.62341        5.15141       10.69712
C          7.94686        4.02949       13.16174
C          8.15053        3.10779       14.16696
C          7.99734        3.63160       15.51795
C          8.19990        3.04005       16.80292
C          8.74634        1.64747       16.88192
C          9.67802        1.00104       16.07609
C          9.99913       -0.32242       16.50801
C          9.37888       -0.64270       17.69214
S          8.18236        0.51445       18.06372
C          9.60429       -1.80974       18.59549
Cl        11.09692       -1.31983       15.65486
C          7.91010        3.78724       17.98156
C          7.40187        5.09593       17.91328
C          7.27708        5.69428       16.63836
C          7.55446        4.96250       15.46390
S          7.38464        5.48602       13.82216
C          6.81714        7.10365       16.56857
C          5.72236        7.70280       17.17307
C          5.62227        9.09875       16.90600
C          6.59461        9.53428       16.03443
S          7.73766        8.29718       15.72832
C          6.77035       10.87996       15.41273
Cl         4.39238       10.06693       17.59884
C          7.07836        5.60152       19.23246
C          7.34159        4.71790       20.24362
S          8.13731        3.35125       19.65698
H         13.10738        9.26086      -14.48094
H         10.71298        9.30632      -13.51534
H          7.61637        7.51225      -10.23429
H          5.60563       10.76858      -13.34366
H          7.11605       11.55300      -13.77935
H          6.19639       12.12932      -12.37023
H         14.54683        7.11724       -7.47584
H         18.50552        5.21290       -9.93241
H         17.56776        4.42934      -11.20504
H         17.68249        3.67461       -9.60752
H         12.55962        6.05515       -7.23627
H          8.06154        5.55417       -6.15641
H          7.49987        4.58374        0.08073
H         13.17161        9.46496        3.33529
H         14.06655        8.17827        4.16845
H         12.83043        9.10978        5.03143
H         11.54619        6.78548        5.60290
H          8.81032        2.34575        5.27116
H          7.62307        1.73741       11.47291
H          8.44174        2.08973       13.94552
H         10.14826        1.45577       15.21454
H          9.76136       -2.73112       18.02716
H          8.76425       -1.97707       19.27747
H         10.49735       -1.63470       19.20837
H          5.02208        7.16574       17.80077
H          5.81478       11.41129       15.34269
H          7.16366       10.80146       14.39297
H          7.45776       11.49163       16.00455
H          6.64135        6.57020       19.43574
H          7.15021        4.84161       21.30108
