104

C          4.38000       -0.32925       -6.24120
C          4.23817        0.33800       -7.42759
S          5.56706        1.41046       -7.68549
C          6.31859        0.97145       -6.20133
C          7.59763        1.60477       -5.77515
C          5.56371        0.02495       -5.55502
C          5.71900       -0.66939       -4.30312
O          6.64314       -0.57183       -3.52054
C          4.43704       -1.50738       -4.21504
C          3.63517       -1.31162       -5.48600
C          2.49161       -1.92445       -5.87738
C          1.85941       -1.62843       -7.11960
N          1.33209       -1.38865       -8.12507
C          1.82266       -2.91055       -5.10257
N          1.26997       -3.70857       -4.46708
C          4.12391       -2.22422       -3.11862
C          4.94324       -2.31966       -1.96018
S          6.11634       -3.56491       -1.82851
C          6.59948       -3.06806       -0.25219
C          5.87570       -1.96234        0.15550
C          4.89761       -1.56316       -0.80564
C          6.08473       -1.28829        1.40323
N          6.24002       -0.72915        2.40846
C          7.66211       -3.75749        0.39395
C          7.42685       -4.81929        1.18155
C          8.47999       -5.55911        1.82295
N          8.56643       -5.76829        3.20068
C          7.64627       -5.25985        4.19795
C          8.02968       -3.87789        4.70288
C          9.71195       -6.52319        3.54236
O         10.12716       -6.87554        4.62756
C         10.31598       -6.80478        2.22780
C          9.50499       -6.17360        1.22736
C         10.09867       -6.45132       -0.08829
O          9.66500       -6.09758       -1.16512
N         11.23787       -7.22267        0.23946
C         12.13846       -7.74892       -0.77452
C         11.46711       -8.74524       -1.70584
C         11.33308       -7.41822        1.62254
C         12.36044       -8.16806        2.28282
C         13.66520       -7.88133        2.18042
C         14.68518       -8.62087        2.86455
C         15.70042       -9.24745        2.23499
C         16.56357       -9.86476        3.24697
C         15.92884       -9.55553        4.53883
C         14.83454       -8.81774        4.29378
C         16.34115       -9.91427        5.83981
N         16.67944      -10.20675        6.91225
C         17.71027      -10.53846        3.00029
C         18.58418      -11.12695        4.01790
C         19.64254      -11.69066        3.40440
C         19.50775      -11.46810        1.97339
C         18.35945      -10.81953        1.71162
C         17.92947      -10.48598        0.40302
N         17.58260      -10.22132       -0.66815
C         20.70794      -12.35010        4.11895
C         21.43063      -13.34698        3.58639
C         22.47912      -14.02969        4.30972
C         23.26269      -15.03307        3.88172
C         24.51284      -15.29912        4.71069
O         24.74057      -14.98808        5.86388
C         25.38489      -15.93302        3.75238
C         26.67166      -16.40330        3.80034
S         27.13121      -17.01847        2.25597
C         25.58115      -16.69865        1.56508
C         24.75438      -16.13771        2.49714
C         23.36331      -15.76574        2.58845
C         22.36540      -16.23513        1.80546
C         22.62240      -16.87547        0.55983
N         22.83483      -17.36249       -0.47171
C         21.00468      -16.22794        2.22338
N         19.89641      -16.26100        2.56475
C         27.62522      -16.46362        4.94196
H          3.46199        0.29829       -8.17926
H          7.97204        2.32331       -6.51165
H          8.36880        0.84207       -5.62781
H          7.45554        2.13881       -4.82976
H          3.19823       -2.77632       -3.03109
H          4.20901       -0.73813       -0.66181
H          8.67031       -3.38511        0.22905
H          6.41402       -5.17812        1.35066
H          7.62527       -5.96461        5.03788
H          6.63770       -5.23527        3.77432
H          9.03737       -3.86460        5.13078
H          7.32652       -3.55010        5.47585
H          8.00472       -3.14684        3.88884
H         13.00160       -8.22920       -0.30880
H         12.51684       -6.90930       -1.36885
H         11.12311       -9.62930       -1.16046
H         12.16967       -9.07202       -2.47932
H         10.60414       -8.29738       -2.20598
H         12.02171       -8.98091        2.92405
H         14.00697       -7.05682        1.55812
H         15.81983       -9.27283        1.16510
H         14.15502       -8.40650        5.02756
H         18.42169      -11.15532        5.08231
H         20.22910      -11.80034        1.24026
H         20.88254      -12.01940        5.14237
H         21.22072      -13.64397        2.56594
H         22.69063      -13.60556        5.29537
H         25.40215      -16.97262        0.53422
H         27.30353      -15.82100        5.76667
H         28.62715      -16.14194        4.64106
H         27.68961      -17.48928        5.32151
