94

C          1.49381        0.85071       -1.43436
C          2.03483        0.71542       -2.66468
C          2.07940       -0.54104       -3.33478
N          2.11606       -1.57156       -3.86875
C          2.67178        1.80128       -3.33066
N          3.17103        2.70138       -3.86785
C          0.89900       -0.22041       -0.59064
C          1.04378        0.16007        0.74951
C          0.51933       -0.53964        1.81827
C         -0.28032       -1.64251        1.52867
C         -0.48444       -2.03980        0.17257
C          0.13825       -1.33930       -0.88461
C         -1.36052       -3.10116       -0.08792
C         -2.03132       -3.74621        0.95407
C         -1.81760       -3.35982        2.27465
C         -0.93782       -2.31913        2.56272
C          1.63197        1.49749        0.83367
O          2.09865        1.98500        1.83867
C          1.55250        2.04144       -0.56505
C          1.20161        3.29330       -0.91016
C          0.87948        4.31900        0.02638
S         -0.46270        5.33404       -0.29727
C         -0.38345        6.14284        1.23198
C          0.70880        5.66839        1.93933
C          1.45728        4.68982        1.22139
C          1.06349        6.09020        3.26309
N          1.35414        6.41552        4.33842
C         -1.34524        7.13444        1.63041
C         -2.33963        7.54557        0.82953
C         -3.37692        8.55562        1.11138
C         -3.92774        8.88015        2.35255
O         -3.40123        8.26774        3.45859
C         -4.29391        8.06952        4.54718
C         -4.96714        9.82482        2.42378
C         -5.50214       10.46151        1.28068
C         -4.93312       10.12760        0.02712
C         -3.90736        9.17108       -0.02812
O         -5.37234       10.75181       -1.11956
C         -4.69153       10.42540       -2.33660
C         -6.62235       11.42518        1.49836
S         -7.88036       11.57583        0.35272
C         -8.65779       12.84607        1.20481
C         -9.73771       13.54370        0.52543
O        -10.00358       14.73337        0.64019
O        -10.48482       12.72187       -0.26156
C         -8.08302       13.05916        2.45255
C         -6.90468       12.23279        2.59986
C         -8.49468       14.04144        3.44969
C         -9.73838       14.44779        3.78609
C        -10.20055       15.64868        4.53726
C         -9.68349       16.17753        5.67514
C        -10.28637       17.26040        6.36858
N        -10.78352       18.15402        6.94185
C         -8.53175       15.61145        6.29645
N         -7.59817       15.14415        6.80057
C        -11.48576       16.06288        3.89092
C        -11.91538       15.00741        3.07674
C        -10.97667       13.88164        3.16455
O        -11.18572       12.73396        2.82815
C        -13.00496       15.08357        2.22556
C        -13.74660       16.26747        2.21000
C        -13.38064       17.34092        3.07035
C        -12.23316       17.23512        3.89276
C        -14.17155       18.50167        3.06863
C        -15.28150       18.61435        2.22695
C        -15.60778       17.57770        1.35785
C        -14.84338       16.41147        1.34742
H          0.65521       -0.17088        2.83128
H         -0.05717       -1.63622       -1.91126
H         -1.55488       -3.41921       -1.11007
H         -2.73155       -4.54755        0.73232
H         -2.34664       -3.85959        3.08216
H         -0.79544       -2.02143        3.60012
H          0.96314        3.51150       -1.95060
H          2.35406        4.22968        1.61721
H         -1.24269        7.56432        2.62357
H         -2.42092        7.13432       -0.17375
H         -3.80847        7.39290        5.25590
H         -5.22509        7.59941        4.21328
H         -4.48987        9.01051        5.06976
H         -5.38313       10.07785        3.39354
H         -3.48120        8.87650       -0.98258
H         -5.09250       11.04196       -3.14459
H         -4.85781        9.37572       -2.61076
H         -3.61825       10.64290       -2.26366
H        -10.18450       11.79518       -0.16967
H         -6.27428       12.25488        3.48224
H         -7.65195       14.54789        3.91919
H        -13.23128       14.25426        1.56141
H        -11.94516       18.09738        4.48647
H        -13.93396       19.33282        3.72976
H        -15.88838       19.51633        2.24585
H        -16.46021       17.67343        0.68982
H        -15.11116       15.61392        0.65695
