100

C          4.23493        3.24353        0.03774
C          4.52822        1.95263       -0.23353
C          5.69045        1.32162        0.28762
N          6.64632        0.81777        0.71788
C          3.73414        1.17536       -1.12654
N          3.06778        0.55184       -1.84287
C          5.03609        4.19610        0.85273
C          4.76882        5.48987        0.38030
C          5.25757        6.64252        0.96298
C          5.99220        6.50617        2.13912
C          6.25332        5.20741        2.67241
C          5.79292        4.04961        2.00457
C          6.92895        5.11250        3.89606
C          7.32966        6.26189        4.58241
C          7.08049        7.52396        4.04929
C          6.42055        7.64641        2.82921
C          3.73138        5.44686       -0.65912
O          3.45378        6.33801       -1.43113
C          3.16392        4.05956       -0.56512
C          1.85916        3.74053       -0.64457
C          0.83833        4.72372       -0.79078
S          0.10709        5.40567        0.61020
C         -0.88114        6.48622       -0.30642
C         -0.63434        6.32244       -1.66025
C          0.28147        5.26273       -1.93047
C         -1.20663        7.12939       -2.70224
N         -1.68126        7.77500       -3.53999
C         -1.74821        7.36818        0.40256
C         -2.90816        7.78120       -0.12841
C         -3.73692        8.66896        0.57843
N         -4.52370        9.52405       -0.14687
C         -5.26476       10.32950        0.68808
C         -6.14680       11.28026        0.11351
C         -5.90565       11.83943       -1.08054
C         -4.93738        9.94772        1.97732
C         -3.97507        8.91284        1.90773
C         -5.46212       10.50408        3.17026
C         -4.78491       10.55387        4.32842
C         -5.33750       11.10154        5.53309
C         -4.66919       11.16803        6.70197
C         -5.53327       11.80629        7.69550
C         -6.79258       12.09166        6.99530
C         -6.65839       11.67244        5.72978
C         -7.97332       12.69432        7.48517
N         -8.94505       13.18747        7.87386
C         -5.17978       12.07746        8.96809
C         -6.01897       12.75555        9.95457
C         -5.30323       12.91367       11.08360
C         -3.99752       12.30533       10.89056
C         -3.90364       11.80808        9.64755
C         -2.74548       11.15789        9.16583
N         -1.79185       10.61314        8.78571
C         -5.80541       13.58191       12.25481
C         -5.27578       14.67614       12.82277
C         -5.63514       15.35378       14.08792
C         -6.84731       15.36525       14.69853
C         -7.10843       16.12638       15.87228
N         -7.31957       16.73996       16.83601
C         -7.97544       14.65986       14.19372
N         -8.89690       14.07261       13.78819
C         -4.44000       16.16440       14.47786
C         -3.54916       16.19421       13.39753
C         -4.03576       15.35242       12.30169
O         -3.49803       15.24631       11.21938
C         -2.34015       16.87316       13.40756
C         -1.97488       17.54786       14.57440
C         -2.83617       17.51006       15.70627
C         -4.06369       16.81169       15.64744
C         -2.43998       18.17253       16.87754
C         -1.22738       18.86275       16.93537
C         -0.39120       18.90194       15.82352
C         -0.76148       18.24744       14.64899
H          4.98813        7.61349        0.55762
H          5.97042        3.07222        2.44615
H          7.12905        4.14083        4.34286
H          7.83121        6.17116        5.54244
H          7.38894        8.41591        4.58884
H          6.22078        8.64165        2.43561
H          1.52705        2.73247       -0.41096
H          0.56584        4.97263       -2.93334
H         -1.44958        7.69906        1.39641
H         -3.24807        7.45457       -1.10582
H         -4.54450        9.57540       -1.15555
H         -7.03761       11.57042        0.66590
H         -5.02130       11.61872       -1.67012
H         -6.59380       12.56376       -1.50183
H         -3.51998        8.38793        2.73793
H         -6.46877       10.90417        3.10827
H         -3.76399       10.17720        4.38617
H         -3.65900       10.82651        6.84619
H         -7.40054       11.73507        4.94690
H         -7.02515       13.11589        9.81996
H         -3.22357       12.29090       11.64398
H         -6.66489       13.07264       12.67987
H         -1.69711       16.85312       12.53146
H         -4.67956       16.78378       16.54050
H         -3.07474       18.15926       17.76162
H         -0.93630       19.37125       17.85129
H          0.55195       19.44086       15.87085
H         -0.09118       18.28719       13.79236
