88

C          0.65160        0.08262        4.43781
C          0.18287        1.33305        4.81833
C          0.38137        2.41926        3.97592
C          1.06593        2.27637        2.75195
C          1.55167        0.99963        2.37863
C          1.32036       -0.10300        3.23838
N          1.72674       -1.34977        2.93388
C          2.38263       -1.53307        1.76206
C          2.64826       -0.46244        0.91734
N          2.23639        0.79373        1.22717
C          3.39231       -0.58385       -0.37573
C          2.77789       -2.94094        1.43614
C          1.25192        3.46328        1.86886
C          1.33510        3.52727        0.47248
C          1.56040        4.84431        0.01969
C          1.61398        5.73594        1.06581
S          1.42595        5.05835        2.56701
C          1.84587        7.03046        0.55402
C          1.94590        6.95369       -0.81623
C          1.76891        5.56250       -1.23794
C          1.80100        5.05957       -2.48748
C          2.02363        5.88748       -3.62193
N          2.21025        6.55848       -4.55050
C          1.62256        3.67188       -2.74361
N          1.48042        2.54182       -2.96732
C          2.19247        8.21953       -1.38676
C          2.25854        9.22160       -0.41283
S          2.02613        8.55734        1.18175
C          2.47295       10.66264       -0.57974
C          3.14822       11.49727        0.32063
N          3.38887       12.84606        0.20688
C          2.95719       13.55206       -0.88358
C          2.25944       12.84375       -1.89652
C          2.00744       11.35846       -1.72738
N          1.31053       10.84099       -2.75678
S          1.02961       12.06343       -3.83263
N          1.75156       13.32609       -3.04621
C          3.23465       14.98678       -0.95436
C          3.43136       15.80472       -2.07171
C          3.67014       17.14307       -1.69719
C          3.64268       17.29696       -0.33006
S          3.34206       15.90704        0.52403
C          3.88469       18.65027       -0.01980
C          4.06579       19.34857       -1.18955
C          3.93603       18.43841       -2.32140
C          4.03171       18.73378       -3.63026
C          4.27663       20.05507       -4.08781
N          4.47401       21.13122       -4.47724
C          3.88516       17.73867       -4.63043
N          3.77124       16.92447       -5.44712
C          4.31893       20.71088       -0.94995
C          4.31705       21.00049        0.41687
S          3.98682       19.56413        1.35720
C          4.52628       22.30270        1.09696
C          5.12418       22.32661        2.37189
C          5.31741       23.52229        3.04618
C          4.93639       24.71189        2.43921
C          4.35923       24.73051        1.17802
C          4.13373       23.51701        0.48667
N          3.52972       23.55706       -0.72757
C          3.17026       24.75665       -1.24786
C          3.42360       25.93778       -0.56228
N          4.01748       25.92354        0.65747
C          3.07581       27.29420       -1.09166
C          2.47950       24.71355       -2.57610
H          0.49035       -0.77227        5.09093
H         -0.34055        1.45921        5.76266
H         -0.01440        3.38276        4.28928
H          3.69709       -1.60714       -0.60646
H          4.29574        0.03342       -0.33469
H          2.76225       -0.22702       -1.19663
H          2.45502       -3.63051        2.22348
H          3.86480       -3.02541        1.34244
H          2.30461       -3.26114        0.50230
H          1.25365        2.64608       -0.15294
H          2.31601        8.42534       -2.44360
H          3.56615       11.08200        1.23881
H          3.40222       15.42345       -3.08538
H          4.49044       21.46875       -1.70459
H          5.44230       21.40771        2.85955
H          5.75839       23.52436        4.03930
H          5.08454       25.65161        2.96587
H          2.58636       27.26359       -2.06797
H          3.98771       27.89128       -1.19407
H          2.40067       27.80028       -0.39430
H          2.36023       23.67957       -2.91768
H          3.05993       25.25070       -3.33200
H          1.47952       25.15259       -2.50016
