113

C          0.29023       -8.70921      -12.22224
C         -0.29468       -7.52257      -12.65697
F         -0.38790       -7.28227      -13.97212
C         -0.79207       -6.60399      -11.74399
F         -1.36906       -5.47255      -12.17073
C         -0.71559       -6.85448      -10.37860
C         -0.15084       -8.05198       -9.91629
C          0.36494       -8.99987      -10.85150
C          0.89871      -10.22827      -10.40073
C          0.88370      -10.52882       -9.04427
C          0.33868       -9.58772       -8.15883
C         -0.14205       -8.34842       -8.55119
C          0.17949      -10.16899       -6.81905
O         -0.21631       -9.57944       -5.83528
C          0.52761      -11.62214       -6.97604
C          1.22986      -11.75734       -8.27263
C          2.09624      -12.73068       -8.62884
C          2.44207      -13.80394       -7.75832
N          2.72176      -14.68747       -7.05470
C          2.77127      -12.72812       -9.88454
N          3.31084      -12.72414      -10.91621
C          0.00334      -12.58976       -6.20547
C         -0.93645      -12.34209       -5.10220
C         -0.55383      -12.11391       -3.77930
C         -1.51736      -11.88997       -2.73814
N         -1.05967      -11.74547       -1.47429
C          0.27383      -11.72175       -1.23129
C          1.18771      -11.87664       -2.25808
N          0.77065      -12.11134       -3.52128
C          2.66804      -11.83379       -2.03992
C          0.69039      -11.49205        0.18837
C         -2.91865      -11.80017       -2.99660
C         -3.33035      -11.99213       -4.34951
C         -2.31935      -12.30555       -5.41301
N         -2.86608      -12.51719       -6.62554
S         -4.50007      -12.31943       -6.45035
N         -4.57000      -11.88222       -4.86071
C         -3.93653      -11.40725       -1.98897
C         -5.25498      -11.77106       -1.78770
C         -5.92948      -10.93643       -0.80063
N         -7.27212      -10.99207       -0.56989
C         -7.88849      -11.93802       -1.33688
C         -9.36503      -11.99114       -1.20066
O        -10.00453      -11.19279       -0.52630
C        -10.08701      -13.05198       -1.92751
C         -9.45591      -13.89504       -2.74454
C         -8.00029      -13.81146       -2.98096
O         -7.48594      -14.58733       -3.77726
C         -7.23040      -12.79016       -2.22725
N         -5.88734      -12.75823       -2.48609
C         -5.08009      -10.07364       -0.13068
S         -3.52514      -10.18926       -0.85653
C         -5.30665       -9.13091        1.00289
C         -4.62674       -7.89963        1.18708
C         -4.91860       -6.96777        2.24609
N         -4.22480       -5.80578        2.32387
C         -3.21303       -5.57640        1.44334
C         -2.88336       -6.50562        0.47950
N         -3.62435       -7.61600        0.33869
C         -1.68506       -6.39524       -0.41341
C         -2.41247       -4.32326        1.62041
C         -5.88555       -7.24680        3.23635
C         -6.44832       -8.55803        3.20388
C         -6.19078       -9.49488        2.05371
N         -6.85145      -10.65668        2.19846
S         -7.70121      -10.59990        3.60418
N         -7.22818       -9.11787        4.14898
C         -6.23263       -6.30893        4.34504
C         -7.40587       -6.15535        4.99140
C         -7.41853       -5.53883        6.36846
O         -6.65744       -4.71726        6.83203
C         -8.49672       -6.25539        7.09600
C         -8.70646       -6.27727        8.46758
C         -9.56024       -7.26176        8.99465
C        -10.16735       -8.21264        8.11897
C        -10.89719       -9.28106        8.66631
C        -11.06473       -9.38439       10.04344
C        -10.53720       -8.42093       10.88952
C         -9.78596       -7.36497       10.37786
F        -10.73042       -8.50837       12.21277
F        -11.73740      -10.42927       10.54606
C        -10.00214       -8.09642        6.72475
C         -9.18298       -7.09958        6.21335
C         -8.71148       -6.80378        4.83769
C         -9.41450       -6.95989        3.69013
C         -8.91459       -6.53049        2.42882
N         -8.48533       -6.22005        1.39771
C        -10.69902       -7.56567        3.67410
N        -11.73655       -8.08286        3.67924
H          0.65929       -9.40673      -12.96973
H         -1.12700       -6.11979       -9.69138
H          1.25023      -10.94564      -11.13715
H         -0.56465       -7.67295       -7.81234
H          0.13562      -13.64354       -6.42221
H          2.95125      -10.97712       -1.42031
H          3.19561      -11.73207       -2.99461
H          3.00402      -12.75668       -1.55858
H         -0.18063      -11.48239        0.85204
H          1.19777      -10.52720        0.28584
H          1.35865      -12.29005        0.52584
H        -11.15881      -13.10112       -1.76691
H         -9.98572      -14.67414       -3.28229
H         -0.76649       -6.41098        0.18294
H         -1.72066       -5.47895       -1.00745
H         -1.63644       -7.24007       -1.11060
H         -2.98685       -3.57319        2.17098
H         -2.14292       -3.88412        0.65434
H         -1.49833       -4.55043        2.17513
H         -5.37030       -5.74402        4.70891
H         -8.15850       -5.59465        9.11243
H        -11.32350      -10.05708        8.03525
H         -9.37003       -6.64223       11.07431
H        -10.46797       -8.83004        6.07104
