52

C          2.44866        0.30650        0.55454
C          3.57696        0.97582        0.29283
C          4.71030        1.08130        1.18417
C          4.63581        1.09517        2.52403
C          5.79883        1.22543        3.37000
C          5.79291        0.89671        4.66774
C          6.92594        1.02102        5.56558
C          8.20570        0.91898        5.18068
C          9.33720        1.03664        6.08179
C         10.62920        1.03008        5.71228
C         11.73829        1.13758        6.63145
C         12.93857        1.06785        6.03778
C         12.87683        0.90878        4.59462
S         11.19689        0.90742        4.06792
C         13.92070        0.75791        3.75671
C         15.32428        0.71854        4.12130
C         16.15044        0.48052        3.09212
C         15.47054        0.31037        1.82744
S         13.75005        0.53878        2.01641
C         16.08471        0.00890        0.67169
C         15.42975       -0.20712       -0.60439
C         16.08027       -0.42437       -1.75687
C         15.36689       -0.63934       -2.99733
C         15.93921       -0.52151       -4.20358
C         15.23691       -0.68442       -5.45738
C         14.42037       -1.70936       -5.74521
C         13.77936       -1.85757       -7.03033
C         13.21124       -3.00173       -7.42797
H          1.65124        0.26142       -0.18021
H          2.28542       -0.21195        1.49358
H          3.69854        1.45042       -0.67913
H          5.67669        1.17325        0.69049
H          3.67387        1.00691        3.02240
H          6.70298        1.60364        2.89766
H          4.88187        0.51898        5.13237
H          6.67500        1.16996        6.61306
H          8.43078        0.73869        4.13252
H          9.09427        1.13296        7.13752
H         11.60083        1.23990        7.69826
H         13.86783        1.12036        6.58473
H         15.67469        0.85405        5.13417
H         17.22461        0.40460        3.18894
H         17.16723       -0.10291        0.67166
H         14.34176       -0.17482       -0.61845
H         17.16691       -0.43627       -1.79018
H         14.31043       -0.89312       -2.92112
H         16.97806       -0.20938       -4.29028
H         15.46936        0.05995       -6.21654
H         14.22901       -2.48120       -5.00224
H         13.77038       -0.99922       -7.69898
H         13.21561       -3.89295       -6.80821
H         12.74927       -3.07736       -8.40718
