102

C         -1.51823        2.80024        0.61617
O         -1.18840        3.15111       -0.49388
C         -0.59205        2.74396        1.74270
C         -1.29526        2.69786        2.95712
C         -0.56136        2.62461        4.13487
C          0.83949        2.61626        4.05935
C          1.50972        2.66022        2.83563
C          0.78798        2.72269        1.65810
F          1.41838        2.72936        0.47773
F          2.84855        2.62836        2.80114
F          1.54502        2.55409        5.19638
C         -2.76000        2.71847        2.65036
C         -3.75384        3.05851        3.50310
C         -3.51739        3.38197        4.86054
N         -3.30372        3.64371        5.96319
C         -5.11240        3.19081        3.08715
N         -6.22093        3.29172        2.76223
C         -2.87871        2.48902        1.18574
C         -3.89380        1.91255        0.51430
C         -3.95325        1.55374       -0.90320
N         -4.74540        0.52297       -1.23357
C         -4.81212        0.23274       -2.54794
C         -4.11792        0.91785       -3.51798
C         -3.34413        1.96157       -3.06896
N         -3.27726        2.29681       -1.77261
C         -2.55761        2.77439       -4.00109
C         -2.18882        4.03814       -3.72834
C         -1.44432        4.81152       -4.66117
C         -0.56470        4.41857       -5.64099
C         -0.07045        5.46986       -6.50747
C          0.79253        5.43165       -7.64546
C          1.35507        4.12158       -8.13519
C          2.58663        3.82657       -8.71448
C          2.78288        2.44654       -9.01850
C          1.72339        1.67302       -8.61234
S          0.42024        2.66037       -8.12297
C          1.59640        0.18542       -8.59225
Cl         4.21691        1.87328       -9.75677
C          1.13985        6.64492       -8.29930
C          0.63282        7.88536       -7.87411
C         -0.19924        7.92576       -6.71989
C         -0.54385        6.71653       -6.05760
S         -1.50852        6.49900       -4.62452
C         -0.60098        9.26817       -6.17362
C          0.09928       10.47299       -6.16446
C         -0.56951       11.53253       -5.47975
C         -1.72805       11.10126       -4.87973
S         -2.15377        9.55514       -5.46576
C         -2.61576       11.80051       -3.90500
Cl         0.07989       13.11449       -5.38845
C          1.08078        8.94184       -8.75965
C          2.03960        8.56167       -9.66972
S          2.18142        6.87632       -9.67343
C          2.85923        9.40247      -10.54240
N          3.30676        8.87847      -11.69539
C          4.08872        9.67840      -12.43916
C          4.45535       10.94794      -12.05830
C          3.95328       11.38635      -10.84938
N          3.13420       10.63821      -10.08251
C          4.35263       12.69897      -10.32077
C          3.57418       13.44324       -9.51923
C          4.00719       14.71147       -8.96971
C          3.22423       15.68977       -8.49405
C          3.83911       16.75061       -7.62392
O          5.00558       17.07671       -7.57591
C          2.73327       17.25105       -6.78759
C          1.51955       16.64901       -7.17823
C          1.77184       15.87188       -8.42149
C          0.87647       15.68646       -9.42367
C         -0.49897       16.04207       -9.29278
N         -1.61273       16.33824       -9.16570
C          1.27216       15.26531      -10.72842
N          1.57796       14.95992      -11.80953
C          0.38518       16.84874       -6.40405
C          0.47557       17.69914       -5.29747
C          1.67145       18.34153       -4.96386
C          2.81995       18.10889       -5.70770
F          3.97488       18.69330       -5.36823
F          1.71106       19.16676       -3.90859
F         -0.61508       17.89198       -4.54370
H         -1.00896        2.56303        5.12053
H         -4.79704        1.59233        1.02420
H         -5.47002       -0.59067       -2.81043
H         -4.20723        0.66937       -4.56617
H         -2.30268        2.30055       -4.94266
H         -2.48878        4.50405       -2.79021
H         -0.30755        3.37524       -5.73227
H          3.35419        4.56031       -8.91572
H          2.12664       -0.27098       -9.43401
H          0.55280       -0.14020       -8.64460
H          2.02829       -0.21554       -7.66719
H          1.07766       10.60323       -6.60818
H         -2.04523       12.50431       -3.28811
H         -3.08785       11.09202       -3.21378
H         -3.40199       12.35539       -4.42365
H          0.76514        9.97445       -8.69394
H          4.42923        9.25199      -13.37868
H          5.09093       11.56003      -12.68429
H          5.33130       13.05598      -10.63064
H          2.58994       13.07215       -9.24059
H          5.08868       14.81339       -8.84950
H         -0.56450       16.36317       -6.60376
