138

C         -7.27657       -2.02575       -7.72574
O         -7.49299       -1.04610       -8.39944
C         -8.05177       -3.26627       -7.73454
C         -7.23768       -4.34434       -7.33772
C         -7.80358       -5.61034       -7.27848
C         -9.16185       -5.75216       -7.60272
C         -9.95391       -4.65603       -7.95971
C         -9.39433       -3.39238       -8.02872
F        -10.14897       -2.32482       -8.31368
F        -11.25827       -4.82669       -8.21452
F         -9.71271       -6.97195       -7.54361
C         -5.88960       -3.79544       -6.99277
C         -4.71609       -4.46516       -6.96638
C         -4.63254       -5.86026       -7.22414
N         -4.58578       -7.00120       -7.43860
C         -3.47151       -3.80470       -6.75799
N         -2.46706       -3.24839       -6.57408
C         -6.07544       -2.32985       -6.87774
C         -5.48722       -1.47402       -6.02120
C         -5.90095       -0.12826       -5.75942
C         -5.12742        0.92177       -5.30360
C         -5.82702        2.18472       -5.13287
C         -5.40999        3.46275       -4.65599
C         -4.03927        3.59274       -4.05601
C         -2.83043        3.00372       -4.41507
C         -1.74502        3.30825       -3.53541
C         -2.11234        4.17824       -2.53743
S         -3.78270        4.50995       -2.61003
C         -1.28357        4.79313       -1.45802
Cl        -0.18481        2.63446       -3.74788
C         -6.31427        4.56430       -4.71680
C         -7.60961        4.42340       -5.24888
C         -8.03669        3.13351       -5.65963
C         -7.15901        2.03617       -5.54195
S         -7.53083        0.36242       -5.72364
C         -9.40938        2.92520       -6.22290
C         -9.83278        2.12821       -7.28340
C        -11.23614        2.21132       -7.54331
C        -11.87112        3.08854       -6.69508
S        -10.79606        3.65433       -5.49497
C        -13.30248        3.51095       -6.65138
Cl       -11.99008        1.29996       -8.78211
C         -8.29495        5.69666       -5.26147
C         -7.63156        6.72028       -4.63239
S         -6.06821        6.21916       -4.22479
C         -8.13772        8.04269       -4.34585
C         -7.76350        8.88582       -3.32291
C         -8.52395       10.10887       -3.26935
C         -9.51251       10.13625       -4.24872
S         -9.37955        8.75846       -5.28079
C        -10.46733       11.17121       -4.30912
O        -11.47314       11.04209       -5.26696
C        -11.94891       12.23794       -5.87868
C        -10.46058       12.17967       -3.31471
C         -9.40287       12.20410       -2.39339
C         -8.42443       11.19067       -2.37263
O         -7.41994       11.07212       -1.41378
C         -6.76426       12.26523       -0.99959
S         -9.54793       13.56614       -1.35418
C        -11.03853       14.04768       -1.98420
C        -11.42342       13.19618       -2.98549
C        -11.74887       15.18301       -1.46829
C        -11.30881       16.04776       -0.50210
C        -12.22787       17.08938       -0.14263
C        -12.09832       18.17272        0.76952
C        -10.85304       18.32317        1.61767
C        -10.18516       19.44870        2.09642
C         -9.04727       19.16097        2.91887
C         -8.81293       17.81267        3.03583
S        -10.06363       16.92768        2.29243
C         -7.71437       17.09963        3.75966
Cl        -8.12145       20.39579        3.66173
C        -13.16780       19.09084        0.87782
C        -14.41194       18.86564        0.26518
C        -14.51317       17.81945       -0.68680
C        -13.41251       16.95813       -0.88979
S        -13.26434       15.66603       -2.03401
C        -15.74862       17.67110       -1.52101
C        -16.39479       16.53523       -1.99763
C        -17.51875       16.81266       -2.83508
C        -17.74407       18.16185       -2.97527
S        -16.54718       19.06862       -2.15920
C        -18.81372       18.87943       -3.73160
Cl       -18.43525       15.56174       -3.56332
C        -15.40633       19.76751        0.81539
C        -14.89586       20.73897        1.64518
S        -13.19392       20.63577        1.63252
C        -15.57226       21.79459        2.32335
C        -15.18995       22.28401        3.51498
C        -15.57482       23.69865        3.83487
O        -16.55075       24.29830        3.45629
C        -14.43497       24.22219        4.61931
C        -13.52214       23.18772        4.90934
C        -14.12524       21.91004        4.45154
C        -13.90617       20.67449        4.97496
C        -12.89879       20.43281        5.94411
N        -12.05825       20.26011        6.73569
C        -14.70716       19.53981        4.62479
N        -15.35955       18.62286        4.34939
C        -12.28624       23.50098        5.45617
C        -12.01772       24.84046        5.75812
C        -12.95633       25.84859        5.51652
C        -14.17685       25.54159        4.93088
F        -15.05493       26.51039        4.64763
F        -12.66071       27.11977        5.82067
F        -10.82289       25.15692        6.27519
H         -7.25922       -6.49778       -6.97376
H         -4.66018       -1.81225       -5.40106
H         -4.07323        0.77613       -5.11786
H         -2.70371        2.35255       -5.26893
H         -0.48178        4.11948       -1.13977
H         -1.88398        5.02279       -0.57121
H         -0.82635        5.72557       -1.80788
H         -9.17144        1.49424       -7.86425
H        -13.79868        3.37841       -7.61852
H        -13.39973        4.56996       -6.38488
H        -13.84302        2.91893       -5.90645
H         -9.29168        5.84443       -5.65102
H         -7.00265        8.63975       -2.59013
H        -12.53265       11.96188       -6.76195
H        -11.13987       12.90653       -6.18918
H        -12.66324       12.75253       -5.23878
H         -5.75847       12.00362       -0.65894
H         -7.27903       12.68714       -0.13118
H         -6.66253       12.99842       -1.80692
H        -12.38561       13.31020       -3.45467
H        -10.32787       15.92616       -0.07180
H        -10.48191       20.46681        1.88997
H         -6.73269       17.51313        3.50063
H         -7.68553       16.03026        3.52103
H         -7.85147       17.19705        4.84139
H        -16.07325       15.52328       -1.78598
H        -19.39735       18.20131       -4.36199
H        -18.37910       19.64052       -4.38836
H        -19.50878       19.37384       -3.04382
H        -16.46861       19.69155        0.61348
H        -16.36461       22.29802        1.76722
H        -11.50655       22.76669        5.63394
