112

C         -5.00263       -0.94160       -1.20544
O         -5.21529       -0.36952       -2.25063
C         -5.61170       -2.20076       -0.75973
C         -4.90038       -2.72601        0.33672
C         -5.39560       -3.85583        0.97525
C         -6.57973       -4.43061        0.49566
C         -7.26448       -3.89570       -0.59895
C         -6.77579       -2.76869       -1.24087
F         -7.45276       -2.22054       -2.25633
F         -8.41587       -4.45039       -1.00139
F         -7.07705       -5.50109        1.12940
C         -3.74720       -1.82313        0.61666
C         -2.60075       -2.14810        1.26101
C         -2.38318       -3.43542        1.82936
N         -2.22773       -4.48998        2.28760
C         -1.50126       -1.24619        1.34734
N         -0.61807       -0.49666        1.41942
C         -4.02784       -0.57311       -0.12140
C         -3.71694        0.69230        0.20943
C         -4.26263        1.82132       -0.45941
S         -3.41113        2.61375       -1.73487
C         -4.60435        3.85369       -1.92334
C         -5.67600        3.59305       -1.10441
C         -5.42349        2.50057       -0.27445
C         -6.49981        2.35632        0.64013
C         -7.53770        3.28081        0.42895
C         -8.75132        3.44979        1.20766
O         -9.78870        3.99118        0.84688
O         -8.52046        2.99101        2.47238
C         -9.43703        3.48743        3.44497
S         -7.28590        4.39752       -0.89771
C         -4.43808        4.97370       -2.81460
C         -3.72659        5.02479       -3.99107
C         -3.82310        6.27750       -4.72478
C         -3.31998        6.68696       -5.99809
C         -2.59159        5.71008       -6.86817
C         -1.54043        5.89967       -7.75900
C         -1.07090        4.70368       -8.37292
C         -1.69585        3.59213       -7.86414
S         -3.06733        4.04702       -6.95822
C         -1.34233        2.15421       -8.02879
Cl         0.19137        4.71104       -9.52652
C         -3.47086        8.03700       -6.41704
C         -4.14765        8.97748       -5.62328
C         -4.68721        8.55054       -4.38210
C         -4.51714        7.21767       -3.95097
S         -5.03204        6.51594       -2.45656
C         -5.35632        9.52305       -3.47040
C         -6.49387        9.38017       -2.68369
C         -6.74342       10.49771       -1.83283
C         -5.86867       11.53228       -2.06784
S         -4.63247       11.05418       -3.14095
C         -5.82667       12.89920       -1.47623
Cl        -7.99720       10.49270       -0.66753
C         -4.13605       10.27559       -6.26008
C         -3.34913       10.35555       -7.38426
S         -2.92064        8.80197       -7.88603
C         -2.91535       11.55556       -8.05901
C         -2.61354       11.76334       -9.40925
C         -2.16910       13.08795       -9.63308
C         -2.10963       13.79123       -8.45754
S         -2.63146       12.98883       -7.11105
C         -1.60803       15.07731       -8.70994
C         -1.38891       15.22564      -10.05069
C         -1.71462       13.96121      -10.73175
C         -1.61387       13.66703      -12.04417
C         -1.97081       12.37584      -12.54535
N         -2.25565       11.33316      -12.94972
C         -1.11531       14.61192      -12.97619
N         -0.67687       15.38644      -13.72632
C         -0.92556       16.53780      -10.34315
C         -0.83771       17.32263       -9.18338
S         -1.15739       16.35000       -7.76354
C         -0.41558       18.68276       -9.03668
C         -0.86393       19.53038       -8.09365
C          0.01335       20.68957       -7.72247
O          0.83112       21.24420       -8.42249
C         -0.26719       20.93682       -6.29356
C         -1.31790       20.10734       -5.84846
C         -1.88315       19.42644       -7.04050
C         -3.17552       19.05009       -7.20448
C         -4.10317       19.00676       -6.12505
N         -4.83343       18.95935       -5.22641
C         -3.71211       18.76446       -8.49578
N         -4.15987       18.57406       -9.54910
C         -1.62887       20.07016       -4.49583
C         -0.92988       20.91904       -3.63137
C          0.06837       21.77937       -4.09856
C          0.41795       21.78028       -5.44195
F          1.39958       22.57340       -5.88557
F          0.69920       22.59375       -3.24172
F         -1.23433       20.90179       -2.32673
H         -4.93499       -4.30067        1.85114
H         -3.11346        0.91828        1.08357
H         -6.54299        1.62130        1.43473
H         -9.20229        3.00499        4.39715
H        -10.47385        3.26123        3.18105
H         -9.29102        4.56628        3.56291
H         -3.17881        4.15963       -4.33374
H         -1.08287        6.85550       -7.96739
H         -0.92240        1.95669       -9.01914
H         -2.20511        1.49574       -7.89123
H         -0.58675        1.87834       -7.28261
H         -7.10238        8.48358       -2.66198
H         -6.81218       13.21526       -1.12022
H         -5.49896       13.64066       -2.21416
H         -5.13029       12.92095       -0.63276
H         -4.60521       11.15683       -5.84465
H         -2.71082       10.98364      -10.15497
H         -0.68616       16.92970      -11.32593
H          0.41406       18.99389       -9.67343
H         -2.38019       19.41140       -4.07217
