128

C        -10.89176       -2.68723       -2.82285
O        -11.44518       -1.72286       -3.30433
C        -11.57129       -3.72649       -2.06161
C        -10.74019       -4.85012       -1.92411
C        -11.21756       -5.92379       -1.18628
C        -12.50667       -5.84767       -0.63637
C        -13.31185       -4.71907       -0.79691
C        -12.83887       -3.63679       -1.51408
F        -13.58172       -2.53045       -1.64208
F        -14.53407       -4.68104       -0.24870
F        -12.96581       -6.89070        0.06719
C         -9.45124       -4.57182       -2.63155
C         -8.55825       -5.49707       -3.06026
C         -8.72551       -6.88833       -2.82007
N         -8.87375       -8.02309       -2.61505
C         -7.41924       -5.16174       -3.84843
N         -6.48827       -4.88493       -4.48304
C         -9.45126       -3.11801       -2.93131
C         -8.40699       -2.28521       -3.10578
C         -8.51693       -0.86488       -3.20618
C         -9.38325        0.01056       -2.59260
C         -9.23883        1.39623       -2.93977
C         -9.93368        2.54940       -2.48220
C        -10.95426        2.41231       -1.37827
C        -11.02051        1.53246       -0.29954
C        -12.14490        1.73889        0.56212
C        -12.92372        2.79602        0.15718
S        -12.38301        3.39480       -1.34263
C        -14.12174        3.40235        0.81287
Cl       -12.42821        0.76752        1.94419
C         -9.62537        3.80765       -3.05721
C         -8.74810        3.92830       -4.14595
C         -8.04017        2.77332       -4.57793
C         -8.25321        1.53411       -3.92909
S         -7.39944        0.02794       -4.12645
C         -7.07505        2.90038       -5.71161
C         -6.17376        3.91593       -6.00793
C         -5.43844        3.70153       -7.21459
C         -5.73878        2.49410       -7.80198
S         -7.02193        1.72303       -6.97666
C         -5.15354        1.83995       -9.01129
Cl        -4.31951        4.85458       -7.80788
C         -8.78243        5.28348       -4.66264
C         -9.57063        6.16747       -3.94942
S        -10.14427        5.37995       -2.55783
C         -9.87741        7.55929       -4.17054
C         -8.92146        8.31449       -4.76863
C         -9.10237        9.74170       -4.96629
C         -8.31856       10.69229       -5.55423
C         -7.06375       10.57333       -6.44267
C         -5.76351       11.17066       -5.83599
N         -5.76475       12.61957       -5.67168
C         -6.73105        9.12217       -6.93705
N         -5.57705        9.02537       -7.83979
C         -9.05141       11.95849       -5.29219
C         -8.73504       13.25669       -5.44374
C         -9.68444       14.41378       -5.17342
C        -11.00529       13.97035       -4.57220
C        -11.31683       12.68214       -4.34197
C        -10.34419       11.67083       -4.67405
C        -10.35925       10.34920       -4.46225
C        -11.38108        9.52153       -3.87225
C        -11.14506        8.20240       -3.74721
C         -9.90938       15.14235       -6.48429
C        -10.15012       16.45736       -6.63320
C        -10.35253       17.07571       -7.91580
C         -9.32964       17.61656       -8.67038
C         -7.94104       17.68541       -8.29868
N         -6.83056       17.74019       -7.99569
S         -9.90199       18.21239      -10.17160
C        -11.53707       17.77980       -9.82322
C        -11.62946       17.20245       -8.56822
C        -12.87159       16.78253       -7.99499
N        -13.89009       16.45346       -7.52713
C        -12.53064       18.03609      -10.82157
C        -13.24255       19.17500      -10.86427
C        -14.05005       19.73440      -11.97005
C        -14.94893       19.07003      -12.73575
C        -15.16014       17.66856      -12.58648
N        -15.28010       16.52149      -12.47291
C        -15.77923       19.72704      -13.69219
N        -16.44369       20.27235      -14.46481
C        -13.81366       21.20900      -11.92943
C        -13.23908       21.51621      -10.69113
C        -13.04499       20.29695       -9.89413
O        -12.79117       20.23656       -8.71080
C        -12.78076       22.77564      -10.33323
C        -12.88065       23.80139      -11.29734
C        -13.48356       23.51399      -12.53389
C        -13.96518       22.22013      -12.87096
S        -13.51531       24.91994      -13.54235
C        -12.70389       25.84836      -12.38915
C        -12.40919       25.15760      -11.24535
Br       -12.24625       27.64625      -12.64948
H        -10.64627       -6.82594       -0.99804
H         -7.38911       -2.66562       -3.12596
H        -10.15334       -0.33806       -1.92374
H        -10.28889        0.76123       -0.10311
H        -14.83841        2.63081        1.11090
H        -14.64643        4.09827        0.14883
H        -13.82709        3.96180        1.70841
H         -6.04584        4.79898       -5.39416
H         -4.42278        2.48099       -9.51412
H         -5.93529        1.59822       -9.73890
H         -4.63975        0.91071       -8.73810
H         -8.25359        5.59155       -5.55461
H         -7.97247        7.87135       -5.01530
H         -7.29884       11.13301       -7.36136
H         -4.91736       10.96766       -6.50026
H         -5.54449       10.69092       -4.87754
H         -5.93857       13.05568       -6.57699
H         -4.85190       12.94290       -5.36373
H         -7.59839        8.68684       -7.44776
H         -6.47172        8.48844       -6.08686
H         -5.69663        9.63303       -8.64639
H         -5.48515        8.07192       -8.19156
H         -7.76648       13.57923       -5.77451
H         -9.19666       15.08426       -4.45150
H        -11.71112       14.74834       -4.29446
H        -12.26378       12.40349       -3.89623
H        -12.31716        9.95958       -3.54712
H        -11.91296        7.57170       -3.30724
H         -9.84975       14.51231       -7.37135
H        -10.22729       17.09348       -5.75232
H        -12.57845       17.31845      -11.63752
H        -12.30136       22.94080       -9.37187
H        -14.38009       22.05325      -13.85965
H        -11.87747       25.58208      -10.40177
