96

C         -2.74132        0.63886       -0.93189
O         -1.82470       -0.15209       -0.94766
C         -2.84430        1.78992       -0.02719
C         -3.93667        2.60296       -0.37976
C         -4.25237        3.68254        0.43833
C         -3.44478        3.94540        1.55155
C         -2.34169        3.14742        1.85839
C         -2.03632        2.05313        1.06471
F         -0.99739        1.26883        1.37616
F         -1.59093        3.42836        2.93206
F         -3.75010        4.98587        2.33804
C         -4.55282        2.05118       -1.62267
C         -5.35485        2.72395       -2.48449
C         -5.78845        4.05768       -2.25195
N         -6.14044        5.15121       -2.05601
C         -5.77541        2.17554       -3.73340
N         -6.12321        1.73675       -4.75020
C         -3.95913        0.70785       -1.81590
C         -4.44992       -0.34791       -2.48736
C         -3.90715       -1.66527       -2.51881
C         -2.98337       -2.09451       -3.45012
C         -2.32504       -1.39947       -4.58591
N         -2.68877       -3.40399       -3.14783
C         -3.41280       -3.81928       -2.05567
C         -3.26975       -5.19757       -1.51671
C         -4.20393       -2.75698       -1.65266
C         -5.07576       -2.81406       -0.51887
C         -6.21455       -2.12142       -0.35504
C         -7.03208       -2.11550        0.82249
C         -8.40318       -1.92324        0.79435
C         -9.36733       -1.69743       -0.31567
N         -8.84659       -1.98610        2.09009
C         -7.78623       -2.05993        2.95985
C         -8.02285       -1.90620        4.42061
C         -6.63765       -2.21126        2.19884
C         -5.29499       -2.31398        2.69910
C         -4.90712       -2.86968        3.85858
C         -3.56868       -2.98461        4.35935
C         -2.53650       -2.08812        4.13751
C         -2.45367       -0.81991        3.36588
N         -1.44095       -2.54480        4.82809
C         -1.75947       -3.66667        5.55549
C         -0.74561       -4.30220        6.43864
C         -3.07665       -3.98495        5.26346
C         -3.77899       -5.09283        5.84599
C         -4.74707       -5.80631        5.24451
C         -5.53575       -6.81252        5.92016
C         -5.09695       -7.98553        6.38767
C         -5.91103       -8.74981        7.39142
O         -7.10550       -8.67692        7.57741
C         -4.92303       -9.54627        8.14741
C         -3.63464       -9.36341        7.60432
C         -3.79575       -8.64425        6.32137
C         -3.10943       -8.94187        5.19069
C         -1.98677       -9.81984        5.20166
N         -1.09244      -10.55728        5.25511
C         -3.61329       -8.59965        3.90061
N         -4.05302       -8.39978        2.84594
C         -2.52604       -9.87441        8.26028
C         -2.74298      -10.65613        9.39498
C         -4.03400      -10.90600        9.87608
C         -5.13846      -10.33080        9.25926
F         -6.37063      -10.54895        9.73205
F         -4.20191      -11.70316       10.93910
F         -1.68486      -11.19074       10.01872
H         -5.10583        4.33152        0.27586
H         -5.38788       -0.27098       -3.02586
H         -2.19102       -0.33429       -4.37285
H         -2.93376       -1.49487       -5.49064
H         -1.33643       -1.82236       -4.79096
H         -2.02193       -3.97380       -3.64943
H         -2.47284       -5.74935       -2.02560
H         -4.20386       -5.75292       -1.64755
H         -3.02835       -5.17172       -0.44928
H         -4.76750       -3.49465        0.27250
H         -6.57250       -1.51810       -1.18103
H         -8.94896       -1.02460       -1.07032
H        -10.28870       -1.23446        0.05505
H         -9.63267       -2.64381       -0.79668
H         -9.81502       -1.89704        2.37120
H         -9.09205       -1.85521        4.64803
H         -7.56126       -0.97780        4.77299
H         -7.61663       -2.74362        4.99000
H         -4.52077       -1.93298        2.04084
H         -5.66816       -3.31838        4.48413
H         -3.40669       -0.28215        3.38259
H         -2.18554       -1.02690        2.32538
H         -1.70126       -0.14664        3.78921
H         -0.53868       -2.08661        4.83470
H          0.18242       -3.71975        6.46831
H         -0.49933       -5.30574        6.07886
H         -1.11906       -4.37966        7.46448
H         -3.51883       -5.32341        6.87854
H         -5.04996       -5.58487        4.22285
H         -6.56916       -6.51457        6.10934
H         -1.50790       -9.70704        7.92234
