104

C         -0.64291      -10.33219       -2.89182
C          0.08663      -11.26776       -2.15143
C          0.86938      -10.64926       -1.18209
C          0.76061       -9.28498       -1.15175
S         -0.31017       -8.75965       -2.32767
C          1.57872       -8.62517       -0.14062
C          2.35275       -9.46708        0.61279
Ge         2.08026      -11.30568        0.14806
C          3.64552      -12.22768       -0.53596
C          1.19125      -12.32575        1.54347
C          3.14953       -8.82854        1.55760
C          2.94744       -7.44178        1.53796
S          1.79690       -7.03604        0.34472
C          3.60830       -6.47864        2.43341
C          3.19269       -5.15655        2.64185
C          3.99523       -4.51918        3.58348
C          5.02052       -5.28490        4.06953
S          4.97206       -6.82088        3.40056
C          5.87458       -4.61936        5.04772
C          5.50329       -3.34062        5.36997
Ge         3.95600       -2.78076        4.38600
C          4.25183       -1.31400        3.14769
C          2.39329       -2.48798        5.50100
C          6.30991       -2.72638        6.32761
C          7.35432       -3.57198        6.72889
S          7.24535       -5.06046        5.89921
C          8.40111       -3.24617        7.71583
C          9.54533       -4.02540        7.93346
C         10.37209       -3.47340        8.91856
C          9.86627       -2.33167        9.45086
S          8.41156       -1.88282        8.74452
C         10.77389       -1.85072       10.45321
C         11.85413       -2.68279       10.54714
C         11.69878       -3.77739        9.55625
C         12.57906       -4.74544        9.19363
C         12.08746       -5.68492        8.10454
N         11.67965       -6.46429        7.20104
C         13.85188       -5.06899        9.95890
N         14.90780       -5.33739       10.59375
C         12.80325       -2.25615       11.47433
C         12.38755       -1.05884       12.09135
S         10.87312       -0.55284       11.48750
C         13.12668       -0.31369       13.11728
C         12.65967        0.85574       13.73405
C         13.54589        1.30158       14.70097
C         14.67348        0.53825       14.82598
S         14.64470       -0.75275       13.75591
C         15.58656        0.97355       15.86847
C         15.16043        2.05307       16.59672
Ge        13.51144        2.76530       15.93212
C         13.70224        4.50061       15.07876
C         12.02233        2.72740       17.17784
C         15.99780        2.40025       17.64951
C         17.12411        1.56994       17.68584
S         17.06199        0.42260       16.42805
C         18.19707        1.63210       18.68025
C         19.50194        1.17559       18.47187
C         20.27466        1.34075       19.61185
C         19.60304        1.86332       20.68407
S         18.01993        2.22635       20.26887
C         20.39271        1.96608       21.90419
C         21.69463        1.56002       21.78341
Ge        22.11254        0.99349       20.00197
C         22.65331       -0.85778       19.78578
C         23.31190        2.22171       19.09093
C         22.43371        1.64479       22.95797
C         21.65653        2.12581       24.01658
S         20.07347        2.44712       23.47607
H         -1.31777      -10.57421       -3.70163
H          0.04988      -12.33668       -2.31308
H          3.33814      -13.20831       -0.95399
H          4.36442      -12.38961        0.29340
H          4.12092      -11.61562       -1.32863
H          0.30398      -11.76093        1.89806
H          1.88924      -12.48500        2.39033
H          0.86519      -13.30493        1.13721
H          3.81597       -9.34687        2.23392
H          2.33919       -4.69454        2.16382
H          5.14656       -1.52753        2.52809
H          4.40867       -0.37620        3.71876
H          3.36389       -1.20417        2.49159
H          2.26535       -3.35352        6.18340
H          1.49470       -2.38769        4.85866
H          2.53260       -1.56344        6.09728
H          6.15248       -1.72201        6.69651
H          9.74167       -4.92534        7.38057
H         13.73436       -2.76619       11.68220
H         11.71818        1.34134       13.51449
H         14.55826        4.46599       14.37301
H         13.89173        5.27564       15.84885
H         12.77596        4.74552       14.52016
H         11.94233        1.72025       17.63376
H         11.08614        2.96551       16.63136
H         12.18929        3.48668       17.96916
H         15.80481        3.21252       18.33749
H         19.87155        0.76043       17.54356
H         21.93426       -1.52123       20.30651
H         23.66928       -0.99449       20.20918
H         22.67047       -1.10349       18.70349
H         22.94776        3.25966       19.24241
H         23.32703        1.99356       18.00592
H         24.33336        2.12637       19.51142
H         23.47513        1.36572       23.04226
H         22.01004        2.26895       25.02848
