90

C         -0.55928        0.94821        0.73060
C         -1.84763        1.34045        0.47308
S         -2.22420        1.12913       -1.20415
C         -0.67334        0.51373       -1.54043
Cl        -0.26542        0.07228       -3.14439
C          0.09689        0.45394       -0.41814
C          1.42726       -0.00708       -0.15735
O          2.16269       -0.57224       -0.93884
C          1.62586        0.30923        1.33255
C          0.32605        0.90383        1.87411
C          0.01764        1.31877        3.12910
C         -1.27881        1.80573        3.47041
N         -2.33237        2.20242        3.75069
C          0.93726        1.31700        4.21239
N          1.69516        1.31278        5.09074
C          2.75361        0.02507        2.01549
C          3.95126       -0.59034        1.52752
C          4.64987       -0.48728        0.32080
C          5.77458       -1.34002        0.28299
C          5.96242       -1.97838        1.48499
S          4.81748       -1.64515        2.63746
C          7.11181       -2.79085        1.39433
C          7.64839       -2.67398        0.13343
C          6.82139       -1.75508       -0.65419
C          6.96225       -1.40933       -1.94904
C          6.05351       -0.52657       -2.59568
N          5.33015        0.20551       -3.13210
C          8.02910       -1.91316       -2.74305
N          8.90408       -2.32468       -3.38528
C          8.78761       -3.49733       -0.02058
C          9.08839       -4.20503        1.15234
S          7.89410       -3.85982        2.38699
C         10.10847       -5.20208        1.32476
C         10.81911       -5.46997        2.43523
C         11.72853       -6.59551        2.55259
C         12.13822       -6.83525        3.80991
C         11.60216       -5.89965        4.78272
S         10.79182       -4.58144        3.93460
C         11.58899       -6.02625        6.12387
C         12.07964       -7.13528        6.92435
C         11.48832       -7.21313        8.13191
C         10.47211       -6.19279        8.32231
S         10.76330       -4.89474        7.19046
C          9.41953       -6.31597        9.15241
C          8.23219       -5.50839        9.12813
C          7.39177       -5.15271       10.19392
C          6.23377       -4.47089        9.74475
C          6.24997       -4.29864        8.38040
S          7.50126       -5.03843        7.60203
C          5.04837       -3.69777        7.96614
C          4.23318       -3.55243        9.06080
C          4.96761       -3.94641       10.26658
C          4.57161       -3.83847       11.54926
C          5.40038       -4.26768       12.62301
N          6.07539       -4.62190       13.49699
C          3.31804       -3.26255       11.89153
N          2.29086       -2.78888       12.16212
C          2.92455       -3.21084        8.66256
C          2.80933       -3.16003        7.26340
S          4.38869       -3.17976        6.53287
C          1.59539       -3.01574        6.53140
C          1.26230       -3.45623        5.30498
C         -0.08618       -2.92028        4.82356
O         -0.95979       -2.37083        5.46490
C         -0.02734       -3.13591        3.40830
C         -0.87377       -2.87805        2.37419
S         -0.20529       -3.35911        0.88418
C          1.23311       -3.96063        1.64347
C          1.16450       -3.78534        3.00085
C          1.92836       -4.17450        4.17023
C          2.82463       -5.18999        4.19753
C          3.40266       -5.72348        3.00853
N          3.87168       -6.13755        2.02865
C          3.13464       -5.89132        5.39620
N          3.34851       -6.50772        6.35551
Cl        -2.43073       -2.16737        2.42055
H         -2.61602        1.74197        1.11929
H          2.80340        0.22705        3.07742
H          4.32858        0.14913       -0.49385
H          9.37348       -3.61308       -0.92481
H         10.29072       -5.81921        0.44662
H         12.00381       -7.21089        1.70626
H         12.77711       -7.66391        4.08035
H         12.80702       -7.84819        6.56477
H         11.67598       -7.99859        8.85048
H          9.39096       -7.16470        9.83357
H          7.61513       -5.42705       11.21825
H          2.06517       -3.12132        9.31752
H          0.83124       -2.46923        7.09095
H          1.99107       -4.41876        1.02167
