118

C          0.55686       -8.40056       -1.75988
C          0.27726       -7.46476       -2.90060
O         -0.48656       -6.52463       -2.95003
C          1.17282       -7.87598       -3.98707
C          2.06908       -8.86503       -3.54731
C          1.80219       -9.13779       -2.09981
C          2.61060       -9.82226       -1.25166
C          3.81292      -10.46178       -1.66896
N          4.79148      -10.99024       -1.99950
C          2.35755       -9.92018        0.14806
N          2.15862       -9.99819        1.28888
C          2.97132       -9.38152       -4.47008
C          2.96325       -8.89387       -5.78827
C          2.05214       -7.90633       -6.18739
C          1.13803       -7.38284       -5.28365
Cl         2.06176       -7.34815       -7.81361
C         -0.29920       -8.57883       -0.74046
C         -1.57739       -7.91932       -0.51820
C         -1.69810       -7.08440        0.53089
C         -2.96142       -6.50078        0.89394
C         -4.18349       -6.72800        0.11293
C         -4.25260       -7.50931       -0.96346
S         -2.89388       -8.40989       -1.57714
C         -5.20958       -6.00608        0.75672
C         -4.70085       -5.37268        1.86564
C         -5.66930       -4.66172        2.59247
C         -6.90883       -4.79640        1.98034
S         -6.85011       -5.77552        0.54654
C         -3.29423       -5.69408        1.94380
C         -2.41558       -5.22260        2.98819
C         -1.71461       -6.04565        3.78770
C         -0.83755       -5.59030        4.81483
C          0.30971       -6.20231        5.27728
C          0.98492       -5.49362        6.34552
C          2.17672       -5.78201        7.05062
C          2.94473       -6.97208        6.66969
C          3.13378       -8.14063        7.38139
C          3.92866       -9.08797        6.67777
C          4.33312       -8.62432        5.44372
S          3.77537       -7.02599        5.16818
C          5.13674       -9.32051        4.39598
Cl         4.29562      -10.62240        7.34134
C          2.60574       -4.99875        8.13782
C          1.88157       -3.86995        8.51945
C          0.70839       -3.54288        7.78715
C          0.26379       -4.35584        6.72161
S         -1.14909       -4.19384        5.73625
C         -0.03490       -2.33266        8.20069
C         -0.36071       -1.90600        9.47964
C         -0.85802       -0.57307        9.51317
C         -1.02974       -0.05057        8.25202
S         -0.50748       -1.14525        7.05138
C         -1.50505        1.29968        7.84259
Cl        -1.12944        0.25186       10.98748
C          2.52265       -3.22439        9.64364
C          3.63708       -3.86210       10.16199
S          3.98586       -5.21847        9.16514
C          4.41938       -3.49273       11.32709
C          5.74865       -3.72678       11.35841
C          6.58795       -3.29879       12.45124
C          6.04241       -2.68050       13.66724
C          4.75715       -2.38109       13.84238
S          3.53862       -2.68401       12.63830
C          7.13839       -2.40933       14.51165
C          8.30252       -2.77914       13.88294
C          9.44695       -2.55941       14.66925
C          9.09089       -1.97201       15.87447
S          7.37619       -1.75031       16.02890
C          7.94981       -3.31089       12.58102
C          8.88914       -3.76644       11.57742
C         10.12673       -3.26979       11.42426
C         11.08755       -3.75692       10.46682
C         11.02722       -3.75586        9.12929
C         12.05367       -4.58214        8.41630
O         13.06662       -5.07908        8.86776
C         11.56860       -4.71851        7.03915
C         10.35845       -4.02377        6.86091
C         10.03934       -3.30737        8.13765
C          9.18262       -2.25986        8.22737
C          8.12199       -2.04018        7.31144
N          7.22259       -1.90134        6.58005
C          9.38499       -1.21448        9.17463
N          9.59884       -0.30189        9.85916
C          9.81179       -3.98853        5.58406
C         10.48566       -4.62951        4.53181
C         11.68562       -5.31812        4.75368
C         12.24164       -5.37993        6.02277
Cl        12.49336       -6.06198        3.43081
H          3.68918      -10.15875       -4.23199
H          3.67475       -9.29601       -6.50832
H          0.41403       -6.62696       -5.57186
H         -0.11361       -9.32447        0.02701
H         -0.83952       -6.85173        1.15223
H         -5.19181       -7.63338       -1.49244
H         -5.50511       -4.10118        3.50369
H         -7.85575       -4.38135        2.29812
H         -2.36474       -4.14086        3.09051
H         -1.79005       -7.12278        3.64785
H          0.66990       -7.13599        4.85887
H          2.71101       -8.30928        8.36433
H          5.80634      -10.06473        4.83926
H          5.76088       -8.62034        3.83100
H          4.47517       -9.83729        3.69266
H         -0.15031       -2.48543       10.37115
H         -2.21650        1.71147        8.56451
H         -2.00371        1.27625        6.86748
H         -0.64961        1.97929        7.77365
H          2.15179       -2.31107       10.09136
H          6.24491       -4.23444       10.54029
H          4.42739       -1.89171       14.75446
H         10.46930       -2.79031       14.40041
H          9.74752       -1.66335       16.67706
H          8.54121       -4.55751       10.91758
H         10.50168       -2.48601       12.08002
H         11.96253       -4.19929       10.95123
H          8.90404       -3.45140        5.33609
H         10.07593       -4.56333        3.52503
H         13.17981       -5.88884        6.21671
