70

C          1.42614        1.64734        0.61297
C          2.46242        0.73153        0.72844
N          2.37074       -0.63697        0.71456
C          1.15959       -1.29385        0.57480
C          0.00145       -0.46360        0.48709
C          0.16498        1.04049        0.48833
N         -0.99429        1.70720        0.36444
S         -2.18749        0.56000        0.27084
N         -1.29340       -0.82131        0.43629
C          1.19304       -2.75581        0.58541
C          2.21265       -3.49551        1.25442
C          2.30177       -4.91563        1.28148
C          1.37003       -5.74890        0.63562
C          0.34964       -5.05991       -0.06127
C          0.27047       -3.59160       -0.09810
N         -0.76171       -3.27733       -0.89422
O         -1.35768       -4.46042       -1.26456
N         -0.66843       -5.55117       -0.78277
C          1.40403       -7.21362        0.64425
C          2.06708       -7.88416       -0.31759
C          2.09438       -9.32215       -0.34775
C          1.43400      -10.13396        0.68550
C          0.74532       -9.63811        1.71111
S          0.53727       -7.93107        1.98493
C          1.69185      -11.48222        0.36345
C          2.45363      -11.54611       -0.77864
C          2.75551      -12.86168       -1.16872
C          2.19170      -13.75861       -0.27258
S          1.31906      -12.97565        1.00561
C          2.69044      -10.18914       -1.21983
C          3.48096       -9.84777       -2.37799
C          3.01118       -9.13752       -3.41675
C          3.83008       -8.77492       -4.52922
C          5.18441       -8.52250       -4.63990
C          5.59843       -8.19696       -5.98222
N          6.88720       -7.90548       -6.32018
C          7.72658       -7.94262       -5.24205
C          7.31505       -8.25012       -3.92183
N          6.03506       -8.55745       -3.57636
C          8.29902       -8.27564       -2.78535
C          9.16490       -7.61335       -5.53595
C          4.55647       -8.20233       -6.89111
S          3.07759       -8.51433       -6.05890
C          4.56369       -7.91880       -8.33146
C          5.46679       -7.03614       -8.94725
N          5.55828       -6.69361      -10.27856
C          4.70784       -7.23567      -11.19333
C          3.74318       -8.15346      -10.73731
C          3.67161       -8.51380       -9.26892
N          2.71068       -9.42729       -9.03242
S          1.95609       -9.74682      -10.46968
N          2.82787       -8.77972      -11.49472
H          1.56767        2.71738        0.62905
H          3.48351        1.09915        0.84489
H          2.98666       -2.93820        1.78936
H          3.12470       -5.37135        1.83369
H          2.58816       -7.34588       -1.10913
H          0.28250      -10.30268        2.43396
H          3.33352      -13.15820       -2.03455
H          2.23817      -14.84113       -0.29488
H          4.50236      -10.22128       -2.36305
H          1.96604       -8.83376       -3.43117
H          8.83999       -7.32721       -2.71661
H          9.01004       -9.09635       -2.91862
H          7.78298       -8.42927       -1.83115
H          9.31560       -7.44926       -6.60795
H          9.81749       -8.43651       -5.22938
H          9.46047       -6.69868       -5.01247
H          6.21075       -6.51640       -8.34135
H          4.81565       -6.93780      -12.22778
