90

C         -0.85017        1.78171        0.40598
C         -0.71478        0.46605        0.61875
C          0.56554       -0.18609        0.45218
C          1.73584        0.49229        0.40432
C          1.69456        2.02279        0.54793
C          0.33928        2.62474        0.04117
N          0.09208        4.01068        0.47632
C          0.62813        4.33205        1.60299
C          1.47291        3.40726        2.42077
N          1.98637        2.31841        1.96952
F          1.71932        3.73786        3.69449
F          0.41813        5.56961        2.06854
C          2.94491       -0.27949        0.22871
C          3.13843       -1.49570       -0.43936
C          4.47957       -1.92619       -0.36848
C          5.26186       -1.04118        0.33656
S          4.45651        0.29114        0.90579
C          6.58648       -1.53045        0.37810
C          6.63987       -2.72525       -0.30504
C          5.30498       -3.04547       -0.82048
C          4.92218       -4.11662       -1.54085
C          5.84360       -5.13386       -1.90605
N          6.59792       -5.96676       -2.20162
C          3.57898       -4.29215       -1.97457
N          2.48231       -4.43697       -2.32661
C          7.94400       -3.27036       -0.29674
C          8.83966       -2.45442        0.40370
S          8.03211       -1.03601        1.03413
C         10.23667       -2.65185        0.66750
C         10.57617       -3.33681        1.77778
C         11.95171       -3.57189        2.13897
C         13.07101       -3.13510        1.28951
C         12.92692       -2.45708        0.15079
S         11.37311       -1.99128       -0.49728
C         14.25301       -3.57375        1.92585
C         13.93113       -4.23404        3.08690
C         15.04765       -4.71560        3.78954
C         16.20952       -4.38191        3.10690
S         15.89790       -3.50089        1.64049
C         12.49317       -4.21509        3.21608
C         11.79763       -4.84314        4.31216
C         10.95186       -4.20078        5.13275
C         10.27283       -4.87899        6.18484
C         10.64371       -6.00367        6.92714
C          9.65587       -6.34496        7.87466
C          8.58511       -5.48258        7.82517
S          8.71553       -4.27627        6.69383
C          7.62652       -5.88362        8.77989
C          8.08664       -7.00758        9.43100
C          9.41582       -7.35331        8.90685
C         10.24165       -8.34828        9.28733
C          9.88206       -9.25938       10.31543
N          9.58849      -10.00721       11.15163
C         11.52155       -8.53773        8.68568
N         12.55879       -8.68998        8.19247
C          7.13812       -7.47565       10.37321
C          5.99229       -6.66909       10.39638
S          6.13491       -5.34140        9.27260
C          4.78291       -6.80794       11.16746
C          3.79766       -7.54009       10.60013
C          2.55509       -7.83505       11.28108
C          2.17855       -7.16051       12.37604
C          3.03173       -6.07152       12.96018
C          4.54695       -6.25394       12.57881
N          5.35085       -5.03885       12.83351
C          4.70763       -3.92694       12.72529
C          3.25152       -3.82734       12.39044
N          2.42731       -4.81104       12.48977
F          2.77409       -2.64414       11.98440
F          5.37715       -2.78897       12.94747
H         -1.82727        2.25050        0.47082
H         -1.57255       -0.15295        0.86721
H          0.52183       -1.27082        0.39163
H          2.49535        2.46315       -0.06210
H          0.38156        2.65040       -1.05658
H          2.32863       -2.01237       -0.94041
H          8.25460       -4.20070       -0.75663
H          9.80851       -3.73277        2.43531
H         13.79947       -2.16189       -0.42459
H         15.03365       -5.26362        4.72330
H         17.23032       -4.60620        3.38757
H         12.02134       -5.89926        4.44364
H         10.75000       -3.14007        4.99442
H         11.58508       -6.51647        6.76948
H          7.24050       -8.35318       11.00063
H          3.90466       -7.97080        9.60671
H          1.90977       -8.59885       10.85599
H          1.22327       -7.36767       12.84997
H          2.94254       -6.10202       14.05416
H          4.94241       -7.02043       13.26156
