95

C          3.73172       -2.07611       -4.77054
C          4.70155       -2.76227       -3.81457
C          5.92961       -1.93560       -3.54580
C          5.85400       -0.62152       -2.97231
C          7.07687       -0.00570       -2.80983
C          7.38479        1.28709       -2.30478
C          6.55251        2.32939       -2.47998
C          6.79314        3.68728       -2.00095
C          8.04524        4.17417       -1.91140
C          8.33552        5.51144       -1.47471
C          9.52951        6.16120       -1.31656
C         10.86057        5.62677       -1.53899
C         11.19761        4.87182       -2.59780
C         12.46112        4.24017       -2.80339
C         12.73087        3.28156       -3.76238
C         14.08264        2.78261       -3.78630
C         14.75054        1.84660       -4.61829
O         14.18095        1.22995       -5.72776
C         12.81959        0.83755       -5.66613
C         16.13003        1.60065       -4.43521
S         17.12308        0.53994       -5.37698
C         18.54754        0.88161       -4.49171
C         19.82090        0.27104       -4.81955
C         20.92717        1.00604       -4.54877
C         22.27043        0.56487       -4.84722
C         22.53470       -0.71761       -5.12542
C         21.44268       -1.74575       -5.17060
N         21.50101       -2.43474       -3.86602
C         20.38238       -2.94508       -3.48430
F         20.34650       -3.59717       -2.31722
C         19.11624       -2.87395       -4.28986
F         18.14236       -3.73953       -4.00532
N         18.93456       -2.03732       -5.25056
C         20.04662       -1.09700       -5.49428
C         18.24912        1.81369       -3.51145
C         16.87914        2.25405       -3.45941
C         16.22034        3.21843       -2.66173
O         16.90167        4.12323       -1.85431
C         17.79758        3.58114       -0.89666
C         14.83879        3.44631       -2.81866
S         13.87406        4.56159       -1.90965
C          9.27189        7.47194       -0.76240
C          9.99473        8.60101       -0.34564
C          9.12100        9.57260        0.12002
S          7.45922        9.08233        0.03106
C          7.91075        7.60899       -0.61158
C          7.27150        6.43074       -1.04388
C          5.97168        6.14246       -1.07299
S          5.34162        4.62274       -1.64619
S          8.33922       -1.05822       -3.29254
C          7.24894       -2.29852       -3.78837
C          7.79965       -3.49034       -4.37125
C          7.95653       -3.47046       -5.71375
C          8.52772       -4.58034       -6.44307
C          9.21138       -5.54594       -5.81227
C          9.36709       -5.55598       -4.31570
N         10.72156       -5.03612       -4.04911
C         10.85709       -4.46791       -2.90189
F         12.06226       -3.98409       -2.57037
C          9.75139       -4.33758       -1.89899
F         10.08204       -4.08077       -0.62727
N          8.49855       -4.47724       -2.18181
C          8.21809       -4.75283       -3.61177
H          2.84503       -2.69828       -4.92583
H          4.20004       -1.89257       -5.74309
H          3.39229       -1.11109       -4.37721
H          4.97083       -3.74272       -4.22097
H          4.19158       -2.94522       -2.86028
H          4.92017       -0.14658       -2.69407
H          8.32914        1.40457       -1.78061
H          5.61946        2.19222       -3.02560
H          8.89099        3.54631       -2.16069
H         11.58516        5.87258       -0.76661
H         10.44861        4.67458       -3.36221
H         11.95108        2.95797       -4.43527
H         12.67570        0.01049       -6.36878
H         12.18452        1.65297       -6.02269
H         12.51835        0.49164       -4.67273
H         20.87273        2.00235       -4.11651
H         23.07140        1.29680       -4.78602
H         23.55573       -1.04500       -5.29481
H         21.67825       -2.47567       -5.95588
H         20.03838       -0.89746       -6.57680
H         19.01395        2.17554       -2.84292
H         18.80507        3.52834       -1.31572
H         17.47468        2.61144       -0.50753
H         17.85515        4.28710       -0.06190
H         11.07044        8.71887       -0.37237
H          9.36363       10.55070        0.51209
H          5.23973        6.86974       -0.73518
H          7.66722       -2.60484       -6.30659
H          8.44601       -4.57362       -7.52645
H          9.69154       -6.33809       -6.37934
H          9.32817       -6.59603       -3.96745
H          7.33393       -5.40672       -3.61446
