128

C         -3.21917        1.64231       -0.11567
C         -2.03897        1.09501       -0.59989
C         -1.85897       -0.28250       -0.55588
C         -2.85749       -1.14003       -0.04189
C         -4.04953       -0.57381        0.47463
N         -5.04902       -1.32806        1.00722
C         -6.14934       -0.68554        1.46064
C         -6.28248        0.68135        1.39316
N         -5.31878        1.46423        0.87450
C         -4.21331        0.84321        0.42142
C         -2.64198       -2.61564       -0.07671
C         -3.01047       -3.59574        0.82205
C         -2.69933       -4.96380        0.42467
C         -2.97414       -6.21741        1.05060
C         -3.71910       -6.23915        2.35746
C         -4.76336       -5.44330        2.81842
C         -5.22540       -5.78481        4.12891
C         -4.58060       -6.88740        4.63819
S         -3.26739       -7.32225        3.63616
C         -4.85617       -7.66648        5.88461
Cl        -6.47585       -4.91104        4.90788
C         -2.56046       -7.42704        0.42240
C         -1.80763       -7.42699       -0.76537
C         -1.54282       -6.17312       -1.40093
C         -2.00610       -4.96755       -0.79926
S         -1.87061       -3.34600       -1.40697
C         -0.81063       -6.12378       -2.71913
C          0.10655       -5.20413       -3.22546
C          0.54889       -5.48595       -4.55852
C         -0.01736       -6.63197       -5.06461
S         -1.13203       -7.29579       -3.95436
C          0.18396       -7.29210       -6.39174
Cl         1.64921       -4.46745       -5.38946
C         -1.41069       -8.79115       -1.09700
C         -1.88814       -9.76988       -0.25183
S         -2.91031       -9.06893        0.89622
C         -1.64169      -11.19835       -0.33179
C         -1.39875      -11.92629       -1.49626
C         -1.13236      -13.29145       -1.22537
C         -1.29357      -13.56860        0.10843
S         -1.60597      -12.24184        1.06344
C         -1.19493      -14.96593        0.27948
C         -0.95176      -15.57042       -0.94071
C         -0.81055      -14.53851       -1.95597
C         -0.35926      -14.60634       -3.22907
C         -0.01748      -13.24256       -3.80675
N          0.26605      -12.11120       -4.28598
C          0.05887      -15.86947       -3.96396
N          0.40574      -16.91735       -4.57361
C         -0.93092      -16.97522       -0.83174
C         -1.22173      -17.37736        0.47317
S         -1.39198      -16.00903        1.55133
C         -1.40915      -18.66817        1.02054
C         -0.34759      -19.36478        1.48401
C         -0.81510      -20.50198        2.25060
C          0.03839      -21.44280        2.87798
N          0.73521      -22.20426        3.39185
C         -2.15788      -20.50279        2.29245
C         -2.62786      -19.36265        1.50177
C         -3.90680      -19.02112        1.26740
C         -5.14217      -19.54491        1.90089
C         -6.17586      -18.90559        1.29496
C         -5.68248      -18.00430        0.26792
C         -4.33673      -18.05904        0.25381
C         -6.48996      -17.24087       -0.60504
N         -7.14229      -16.61404       -1.33364
C         -5.37312      -20.47044        2.98578
C         -4.85259      -20.35193        4.21972
C         -5.13225      -21.33242        5.21169
C         -4.46758      -22.50229        5.51337
C         -5.07200      -23.28812        6.57765
C         -4.67277      -24.49918        7.21297
C         -3.31263      -25.05258        6.92028
C         -2.11348      -24.39369        6.67077
C         -1.00135      -25.26956        6.46937
C         -1.35243      -26.59374        6.58858
S         -3.04193      -26.75346        6.76402
C         -0.50257      -27.82157        6.55240
Cl         0.57216      -24.67905        6.14690
C         -5.55799      -25.14566        8.11762
C         -6.86785      -24.67390        8.32325
C         -7.21926      -23.40791        7.77555
C         -6.29819      -22.71608        6.95099
S         -6.41603      -21.10890        6.29678
C         -8.57984      -22.83321        8.01119
C         -9.37923      -22.06015        7.17547
C        -10.66188      -21.75878        7.71319
C        -10.87287      -22.39423        8.91266
S         -9.40435      -23.01638        9.52314
C        -12.14998      -22.56194        9.66357
Cl       -11.80391      -20.80681        6.86794
C         -7.64025      -25.66196        9.05321
C         -6.89728      -26.69508        9.55826
S         -5.27043      -26.52375        9.15022
H         -3.36884        2.71973       -0.15465
H         -1.26901        1.74077       -1.01465
H         -0.92113       -0.68331       -0.93560
H         -6.92768       -1.31056        1.88280
H         -7.16927        1.19059        1.75426
H         -3.52360       -3.33495        1.73801
H         -5.20511       -4.63868        2.24469
H         -5.41711       -7.07870        6.61818
H         -3.93190       -7.99773        6.36914
H         -5.45288       -8.55651        5.64991
H          0.45304       -4.33302       -2.68408
H          0.44957       -6.56561       -7.16683
H         -0.72875       -7.79709       -6.72636
H          0.98437       -8.03882       -6.33968
H         -0.77247       -9.04737       -1.93208
H         -1.43430      -11.45546       -2.47063
H         -0.78362      -17.68058       -1.64157
H          0.69248      -19.07863        1.40929
H         -2.76463      -21.25225        2.77071
H         -7.22409      -19.00501        1.53541
H         -3.71760      -17.55913       -0.46420
H         -6.04952      -21.29488        2.75747
H         -4.21180      -19.51560        4.48768
H         -3.58033      -22.80545        4.97192
H         -2.01430      -23.31597        6.64521
H          0.48477      -27.62521        6.12376
H         -0.97031      -28.60732        5.94981
H         -0.35400      -28.21346        7.56563
H         -9.08413      -21.73565        6.18743
H        -12.67374      -21.60804        9.77366
H        -12.00048      -22.98743       10.66049
H        -12.80590      -23.24573        9.10995
H         -8.70410      -25.60986        9.23981
H         -7.23891      -27.52123       10.16799
