80

C         -3.46568       -0.63568       -2.61289
C         -3.74800        0.61144       -3.18352
C         -3.38018        1.83603       -2.57656
C         -2.69274        1.94312       -1.33836
C         -2.38149        0.69605       -0.71444
C         -2.78013       -0.61271       -1.37622
N         -2.41839       -1.69892       -0.67708
S         -1.64920       -1.14684        0.68344
N         -1.73527        0.49204        0.44860
C         -2.31950        3.23040       -0.72625
C         -2.16555        3.58717        0.62010
C         -1.80733        4.94880        0.76513
C         -1.69747        5.56366       -0.45876
S         -1.99616        4.59516       -1.76736
C         -1.35879        6.91622       -0.26636
C         -1.25852        7.17027        1.07930
C         -1.51881        5.93083        1.81683
C         -1.49660        5.74059        3.15204
C         -1.19623        6.79893        4.05406
N         -0.95642        7.66185        4.78972
C         -1.77079        4.47290        3.72825
N         -2.00040        3.44047        4.20767
C         -0.95442        8.52923        1.32377
C         -0.85535        9.27175        0.13416
S         -1.06027        8.20777       -1.25386
C         -0.60668       10.68342       -0.06196
C         -1.19084       11.31575       -1.10270
C         -1.00483       12.71721       -1.36696
C         -0.18434       13.57041       -0.50262
C          0.46404       13.14047        0.57810
S          0.43505       11.48409        1.11582
C         -0.25627       14.87136       -1.03936
C         -1.06082       14.86674       -2.15255
C         -1.17318       16.12682       -2.76175
C         -0.44627       17.06365       -2.04385
S          0.36673       16.37656       -0.67344
C         -1.53364       13.51454       -2.34334
C         -2.40904       13.07866       -3.40606
C         -3.31851       13.85912       -4.01025
C         -4.16400       13.37056       -5.04225
C         -4.26905       12.09249       -5.59397
C         -5.24185       12.04610       -6.60554
C         -5.83619       13.27099       -6.78783
S         -5.28683       14.47569       -5.79232
C         -6.79243       13.16152       -7.81260
C         -6.80713       11.86773       -8.27944
C         -5.81895       11.08099       -7.53642
C         -5.50283        9.77731       -7.66664
C         -6.14726        8.94854       -8.62260
N         -6.66702        8.26333       -9.39955
C         -4.50547        9.16326       -6.85539
N         -3.69198        8.66686       -6.19302
C         -7.75972       11.71001       -9.31049
C         -8.43043       12.90990       -9.58127
S         -7.85768       14.19236       -8.54579
C         -9.49370       13.20919      -10.55229
C         -9.66383       14.48044      -11.16106
C        -10.68422       14.78769      -12.09187
C        -11.64046       13.85297      -12.50861
C        -11.53741       12.56144      -11.94138
C        -10.44655       12.22045      -10.94273
N        -10.53332       10.94565      -10.51922
S        -11.82338       10.25619      -11.29873
N        -12.35769       11.53439      -12.20895
H         -3.75334       -1.56686       -3.08646
H         -4.27598        0.64299       -4.13742
H         -3.66042        2.74454       -3.11208
H         -2.32097        2.88281        1.42865
H         -0.83496        8.98691        2.29948
H         -1.85195       10.78636       -1.78011
H          1.04495       13.83408        1.17743
H         -1.73798       16.36867       -3.65258
H         -0.34587       18.11909       -2.25413
H         -2.30366       12.03602       -3.69126
H         -3.45064       14.89252       -3.70359
H         -3.66014       11.26279       -5.26082
H         -7.97025       10.78987       -9.84273
H         -8.97246       15.28801      -10.91480
H        -10.72539       15.79723      -12.50268
H        -12.41663       14.09958      -13.22324
