78

C         -1.04789       -0.25097       -5.71221
C         -0.82101        1.03542       -6.21915
C         -0.97155        2.20958       -5.44158
C         -1.35872        2.21849       -4.07710
C         -1.60514        0.92781       -3.51171
C         -1.44391       -0.32342       -4.35694
N         -1.71011       -1.45807       -3.69239
S         -2.13010       -1.01269       -2.15205
N         -1.97567        0.63431       -2.25110
C         -1.52009        3.44838       -3.28240
C         -2.37758        3.70904       -2.20953
C         -2.22786        5.02730       -1.73023
C         -1.27793        5.72507       -2.44306
S         -0.54310        4.85253       -3.64803
C         -1.18447        7.03527       -1.92196
C         -2.06429        7.14788       -0.87087
C         -2.79043        5.89301       -0.69522
C         -3.77031        5.61530        0.18778
C         -4.24050        6.57547        1.12377
N         -4.64042        7.34574        1.89574
C         -4.41189        4.34860        0.21822
N         -4.94613        3.31684        0.24426
C         -1.99192        8.41491       -0.26986
C         -1.13112        9.27786       -0.95808
S         -0.31746        8.41736       -2.24926
C         -0.80231       10.65332       -0.71401
C         -1.63857       11.55774       -0.17318
C         -1.24586       12.88440        0.26216
C         -2.12555       13.44348        1.11339
C         -3.26852       12.58754        1.39523
S         -3.32924       11.31138        0.18948
C         -4.07930       12.62265        2.47062
C         -4.01864       13.55785        3.57756
C         -4.65433       13.12434        4.67855
C         -5.25380       11.81285        4.51988
S         -5.26522       11.36076        2.83382
C         -5.65702       11.03679        5.54035
C         -6.10640        9.69177        5.37752
C         -7.40106        9.20670        5.18333
C         -7.40624        7.80171        5.02742
C         -6.13966        7.27125        5.14309
S         -4.94809        8.38661        5.45804
C         -6.20967        5.87286        4.94812
C         -7.52068        5.52192        4.71955
C         -8.35749        6.72095        4.75914
C         -9.68968        6.80796        4.57978
C        -10.49399        5.66167        4.33157
N        -11.16674        4.73553        4.13985
C        -10.37166        8.05398        4.64178
N        -10.93984        9.06427        4.69714
C         -7.65946        4.13532        4.50078
C         -6.42605        3.47903        4.54189
S         -5.13668        4.60659        4.88889
C         -6.11889        2.05670        4.31755
C         -5.04585        1.37117        4.94138
C         -4.74018        0.00573        4.71907
C         -5.48287       -0.81380        3.85762
C         -6.57900       -0.20122        3.20754
C         -6.91262        1.26121        3.43221
N         -7.98617        1.64493        2.71627
S         -8.50748        0.32528        1.86231
N         -7.41451       -0.81873        2.35824
H         -0.93056       -1.14175       -6.31798
H         -0.51729        1.13844       -7.26162
H         -0.78155        3.15704       -5.94794
H         -3.06743        2.96953       -1.82073
H         -2.54682        8.71702        0.60855
H          0.22081       10.95462       -0.93006
H         -0.30638       13.33888       -0.02133
H         -1.97042       14.40112        1.58938
H         -3.47490       14.49088        3.53238
H         -4.67590       13.66619        5.61400
H         -5.56700       11.39881        6.56021
H         -8.26084        9.86321        5.13169
H         -8.58756        3.61455        4.29849
H         -4.40796        1.90775        5.64496
H         -3.88770       -0.42817        5.24299
H         -5.23928       -1.85692        3.69536
