100

C        -13.53526        7.09840       -4.20804
C        -12.55040        6.93954       -3.21825
C        -11.66964        8.00802       -2.97124
C        -11.77560        9.21121       -3.68953
C        -12.76871        9.34773       -4.66638
C        -13.64692        8.29667       -4.92956
N        -12.87222       10.55361       -5.37396
C        -12.04791       11.63555       -5.16877
O        -12.18748       12.66545       -5.82111
C        -10.98995       11.49329       -4.12669
C        -10.87384       10.34179       -3.44097
C        -10.11500       12.59784       -3.87048
N         -9.38433       13.44668       -3.61746
C        -12.44176        5.66923       -2.45762
C        -11.66721        4.66534       -2.91447
C        -11.55961        3.40628       -2.20909
C        -12.26776        3.15254       -0.94680
C        -13.06514        4.03492       -0.34585
S        -13.39602        5.62401       -0.98761
C        -11.92230        1.84430       -0.54435
C        -11.07132        1.28640       -1.46889
C        -10.63803       -0.00389       -1.11365
C        -11.23125       -0.39125        0.08044
S        -12.26260        0.83736        0.74575
C        -10.86239        2.27078       -2.50996
C         -9.98124        2.13369       -3.63998
C         -9.71333        1.00903       -4.31531
C         -8.81276        0.98678       -5.41982
C         -8.54235       -0.12560       -6.17335
C         -7.55607        0.03189       -7.21718
C         -7.11612        1.35765       -7.25275
S         -7.90757        2.30073       -6.02996
C         -6.15621        1.81706       -8.19059
O         -5.84695        3.17970       -8.16363
C         -4.50450        3.55727       -8.45685
C         -5.65878        0.92870       -9.17620
C         -6.05424       -0.40847       -9.11256
C         -6.99143       -0.88109       -8.15218
O         -7.31332       -2.24422       -8.21733
C         -8.24825       -2.73831       -7.26664
S         -5.24727       -1.33365      -10.34593
C         -4.49440        0.02982      -11.07899
C         -4.83503        1.14105      -10.34038
C         -3.68827       -0.01683      -12.28356
C         -3.64924        1.07086      -13.09694
C         -2.93628        1.07704      -14.35389
C         -2.19440       -0.09646      -14.82047
C         -2.07074       -1.23345      -14.14061
S         -2.77142       -1.49240      -12.57901
C         -1.68105        0.22324      -16.09048
C         -2.04492        1.50411      -16.42806
C         -1.59096        1.87636      -17.70624
C         -0.87001        0.83332      -18.27676
S         -0.77993       -0.56312      -17.25342
C         -2.82730        2.03345      -15.32731
C         -3.45887        3.33271      -15.30589
C         -2.80098        4.50242      -15.37344
C         -3.47185        5.81222      -15.32387
C         -4.73067        6.02074      -15.90887
C         -5.34625        7.27215      -15.85756
C         -4.69381        8.32748      -15.22973
C         -3.43080        8.15180      -14.65372
C         -2.81887        6.89420      -14.71198
C         -2.78647        9.29224      -13.99884
C         -3.39735       10.49098      -13.94025
C         -4.74398       10.67393      -14.55933
O         -5.33914       11.74633      -14.53214
N         -5.30402        9.58288      -15.17309
C         -2.78031       11.59167      -13.29680
N         -2.21473       12.45604      -12.74831
H        -14.23425        6.29030       -4.41813
H        -10.90443        7.90300       -2.20458
H        -14.42249        8.39284       -5.68541
H        -13.58669       10.67261       -6.08184
H        -10.11231       10.21966       -2.67549
H        -11.11178        4.77791       -3.84068
H        -13.55193        3.77905        0.58991
H         -9.94295       -0.62605       -1.66277
H        -11.10759       -1.32728        0.60896
H         -9.51787        3.06186       -3.95536
H        -10.21199        0.07872       -4.04273
H         -9.07487       -1.02332       -5.90079
H         -4.43443        4.64843       -8.44194
H         -4.21025        3.33069       -9.46977
H         -3.78413        3.12468       -7.75776
H         -8.38231       -3.81708       -7.35964
H         -9.23668       -2.29517       -7.44671
H         -7.87340       -2.58058       -6.24776
H         -4.47755        2.09263      -10.68944
H         -4.18672        1.98716      -12.86810
H         -1.51098       -2.06404      -14.55515
H         -1.76300        2.82191      -18.20316
H         -0.38988        0.80289      -19.24545
H         -4.54093        3.31313      -15.19411
H         -1.71462        4.52327      -15.42957
H         -5.24721        5.21202      -16.42101
H         -6.32568        7.40509      -16.30833
H         -1.83524        6.75131      -14.26904
H         -1.80520        9.13857      -13.55828
H         -6.21241        9.72804      -15.59594
