93

C         -2.01300        2.78061        1.96561
N         -1.01836        3.20454        1.17415
C         -0.90217        2.56875       -0.00439
C         -1.73251        1.54767       -0.40218
C         -2.72417        1.19358        0.49007
N         -2.88018        1.80019        1.68282
C         -3.66684        0.12107        0.15077
C         -4.65038       -0.28424        0.97028
C         -5.55538       -1.32136        0.60558
S         -6.81570       -1.76566        1.73440
C         -7.39539       -2.90987        0.68410
C         -6.69801       -3.00971       -0.50151
C         -5.63101       -2.09191       -0.55460
C         -7.28458       -4.08076       -1.42219
C         -7.81260       -3.48065       -2.72626
C         -6.28802       -5.21014       -1.68739
C         -8.42802       -4.53909       -0.51795
C         -8.45506       -3.84442        0.67305
S         -9.68035       -4.28256        1.69988
C        -10.25401       -5.47322        0.55360
C         -9.46523       -5.48652       -0.59580
C        -11.39062       -6.25104        0.90854
C        -11.88826       -7.18923        0.08420
C        -13.01444       -7.98710        0.43758
C        -13.52299       -8.37136        1.66263
C        -14.70595       -9.19190        1.56035
N        -15.36735       -9.66710        2.65390
C        -14.78465       -9.28944        3.82752
C        -15.45995       -9.76861        5.05644
O        -16.47563      -10.45168        5.03800
C        -14.87091       -9.39680        6.35676
C        -13.76859       -8.65223        6.44356
C        -13.07291       -8.15317        5.24328
O        -12.06607       -7.46934        5.37711
C        -13.63498       -8.50709        3.91973
N        -12.95186       -8.01392        2.84769
C        -15.07586       -9.44320        0.25077
S        -13.96743       -8.66906       -0.82249
C        -16.18281      -10.22255       -0.27872
S        -17.30283      -11.04384        0.77319
C        -18.14993      -11.62996       -0.51852
C        -17.66020      -11.25587       -1.75006
C        -16.51536      -10.43708       -1.62075
C        -18.50391      -11.83994       -2.89210
C        -19.16177      -10.73840       -3.72402
C        -17.68549      -12.79260       -3.76477
C        -19.53555      -12.59462       -2.04196
C        -19.28845      -12.44430       -0.69397
S        -20.34637      -13.23553        0.30574
C        -21.24110      -13.82800       -1.07049
C        -20.67148      -13.40184       -2.27034
C        -22.37847      -14.63980       -0.81573
C        -23.40890      -14.70930       -1.67183
C        -24.59774      -15.51878       -1.41502
N        -24.64926      -16.23752       -0.27979
C        -25.76021      -16.96206       -0.08602
C        -26.80538      -16.99376       -0.97708
C        -26.65489      -16.22578       -2.11408
N        -25.55721      -15.48040       -2.34988
C        -27.71539      -16.20668       -3.13266
C        -27.66231      -15.48653       -4.26180
H         -2.13009        3.27524        2.92306
H         -0.09548        2.91624       -0.64257
H         -1.60529        1.06155       -1.35985
H         -3.52369       -0.33310       -0.82306
H         -4.77518        0.18697        1.94397
H         -4.95554       -1.99482       -1.39364
H         -6.99797       -3.06388       -3.32871
H         -8.52906       -2.67142       -2.53811
H         -8.32717       -4.23790       -3.32886
H         -5.42466       -4.84945       -2.25772
H         -6.75406       -6.02254       -2.25670
H         -5.90676       -5.64242       -0.75402
H         -9.62881       -6.14158       -1.44069
H        -11.84270       -6.05912        1.87730
H        -11.44724       -7.36016       -0.89298
H        -15.38672       -9.76357        7.23729
H        -13.33412       -8.37785        7.39872
H        -15.96590      -10.02886       -2.45986
H        -18.41093      -10.13994       -4.25205
H        -19.74512      -10.05267       -3.09718
H        -19.84478      -11.16106       -4.46945
H        -16.89046      -12.25697       -4.29590
H        -18.31764      -13.28723       -4.51079
H        -17.20720      -13.57893       -3.16781
H        -21.05484      -13.67051       -3.24654
H        -22.41116      -15.19219        0.12187
H        -23.43162      -14.14752       -2.59889
H        -25.78405      -17.53548        0.83575
H        -27.68481      -17.59159       -0.78516
H        -28.58746      -16.82472       -2.94137
H        -26.81132      -14.85301       -4.49631
H        -28.47427      -15.51646       -4.98006
