111

C          8.97929        2.55122       -9.95021
O          8.91023        2.95119       -8.58099
C          7.91679        3.84466       -8.26323
C          7.23872        4.62964       -9.19295
C          6.22831        5.48169       -8.76910
O          5.56999        6.16828       -9.75390
C          5.17517        7.49792       -9.42470
C          5.88674        5.52723       -7.41532
C          6.59027        4.80464       -6.42754
C          6.21229        5.00334       -4.99024
C          5.26732        6.02179       -4.53999
C          5.13287        6.17657       -3.17075
C          4.30995        7.18278       -2.48865
S          2.68758        7.42590       -3.08158
C          2.29872        8.68546       -1.97354
C          0.99659        9.37261       -1.97088
S          0.24820        9.71695       -3.50774
C         -1.12335       10.47477       -2.82079
C         -2.13506       11.01402       -3.66493
C         -2.13538       12.29166       -4.08211
C         -2.86688       12.59133       -5.38351
O         -3.80977       12.00179       -5.87423
C         -2.10764       13.70081       -5.93713
C         -2.11430       14.43218       -7.14364
C         -1.10699       15.38016       -7.13855
S         -0.19616       15.36672       -5.67617
C         -1.14536       14.13391       -5.04495
C         -1.24351       13.43956       -3.79925
C         -0.91041       13.98218       -2.60868
C         -1.58142       13.57958       -1.41948
N         -2.17823       13.31782       -0.45829
C         -0.04240       15.09781       -2.45767
N          0.67862       15.99381       -2.29047
C         -1.06510       10.38713       -1.45324
C          0.19819        9.90067       -0.94434
C          0.48672        9.94131        0.49806
C          0.94698        8.81937        1.18452
C          1.14262        8.87455        2.56851
O          1.62485        7.84519        3.33134
C          2.34543        6.84852        2.62027
C          0.81148       10.03003        3.27921
C          0.31766       11.15387        2.62242
O         -0.01665       12.19353        3.44491
C         -0.23982       13.46668        2.85133
C          0.17174       11.10810        1.23559
C          3.39232        8.90617       -1.16381
C          4.54990        8.04091       -1.41166
C          5.76193        8.09732       -0.56184
C          5.56664        8.31878        0.81729
C          6.62729        8.42945        1.71084
O          6.52472        8.68852        3.04886
C          5.29923        8.32846        3.67314
C          7.92386        8.33175        1.23076
C          8.16317        8.11248       -0.12721
O          9.42097        8.01038       -0.66869
C         10.46782        7.70403        0.25627
C          7.08154        8.01957       -1.02628
S          6.02953        4.95717       -2.39139
C          6.72082        4.32452       -3.87913
C          7.75478        3.34688       -3.70284
C          7.55663        2.08489       -3.28053
C          8.71887        1.37727       -2.58888
O          9.90115        1.63486       -2.65175
C          8.05958        0.37047       -1.77209
C          8.47406       -0.61517       -0.84403
C          7.38677       -1.33836       -0.38780
S          5.90214       -0.79495       -1.07233
C          6.69249        0.37611       -1.98498
C          6.32944        1.30470       -3.01246
C          5.23952        1.16866       -3.79605
C          5.28321        1.53715       -5.16669
N          5.35205        1.69454       -6.32145
C          4.05324        0.50790       -3.38109
N          3.05460        0.01521       -3.04942
C          7.61107        3.95646       -6.88976
H          9.29233        3.38112      -10.59300
H          8.02622        2.12983      -10.29035
H          9.73907        1.76837      -10.03838
H          7.47331        4.60273      -10.25138
H          6.05256        8.14787       -9.34386
H          4.56940        7.55882       -8.51714
H          4.55077        7.86877      -10.24335
H          5.02403        6.11578       -7.13850
H          4.73378        6.68226       -5.21095
H         -2.81812       10.29771       -4.12361
H         -2.79635       14.27637       -7.97056
H         -0.85228       16.08412       -7.91947
H         -1.87231       10.72908       -0.81203
H          1.11153        7.89818        0.63783
H          2.90220        6.25024        3.34540
H          3.07074        7.29859        1.94284
H          1.67226        6.19166        2.06479
H          0.93771       10.05715        4.35945
H         -0.50738       14.16519        3.65174
H         -1.07490       13.45095        2.14665
H          0.67529       13.83549        2.37770
H         -0.23413       11.96761        0.71605
H          3.38498        9.66981       -0.39419
H          4.55951        8.45305        1.18234
H          5.38353        8.55678        4.73939
H          5.12287        7.25261        3.57349
H          4.45993        8.91120        3.28349
H          8.72740        8.45064        1.94910
H         11.40425        7.61486       -0.30131
H         10.27732        6.74563        0.75321
H         10.61239        8.50264        0.99270
H          7.29776        7.90076       -2.08550
H          8.77482        3.73372       -3.75031
H          9.49476       -0.79810       -0.53581
H          7.38491       -2.16665        0.30965
H          8.18169        3.32774       -6.21727
