96

C         -1.92351      -13.27633        0.16473
C         -2.66116      -12.81842        1.24090
S         -2.10147      -11.29602        1.82376
C         -0.90531      -11.23349        0.64702
C         -0.89730      -12.36057       -0.15172
C          0.19214      -12.31090       -1.11004
O          0.46659      -13.11224       -1.98212
C          0.96532      -11.06861       -0.68545
C          0.10863      -10.30371        0.25510
C          0.09026       -8.97432        0.49787
C         -0.77441       -8.36039        1.44899
N         -1.44925       -7.82889        2.22746
C          0.89779       -8.07192       -0.25551
N          1.52933       -7.32802       -0.88542
C          2.28174      -11.05914       -0.95548
C          3.23819      -10.25782       -0.26484
C          3.26725       -9.84401        1.07156
C          4.38649       -9.03490        1.34115
C          5.22875       -8.96871        0.25661
S          4.68103       -9.74776       -1.10289
C          6.38059       -8.24515        0.62508
C          6.25504       -7.83824        1.93578
C          4.96183       -8.28067        2.45437
C          4.39782       -8.00683        3.64746
C          3.08741       -8.46231        3.96318
N          2.01184       -8.84482        4.17507
C          5.05934       -7.21777        4.62788
N          5.59658       -6.57323        5.42883
C          7.39362       -7.12789        2.36833
C          8.34058       -7.02181        1.34553
S          7.80405       -7.81509       -0.10719
C          9.61310       -6.33783        1.38647
C         10.29448       -5.76064        0.33558
C         11.46853       -5.02823        0.73432
C         11.67240       -5.11928        2.10640
S         10.48370       -6.13822        2.84062
C         12.71986       -4.43234        2.74690
O         12.87356       -4.70278        4.10285
C         13.32400       -3.65871        4.95339
C         13.54533       -3.55457        1.99854
C         13.32048       -3.44900        0.61733
C         12.35466       -4.24403       -0.03202
O         12.09946       -4.20168       -1.40151
C         13.24238       -4.18773       -2.25721
S         14.31360       -2.21620       -0.07192
C         15.11181       -1.89386        1.37954
C         14.64301       -2.70580        2.38287
C         16.12485       -0.88064        1.47442
C         16.99447       -0.46062        0.47002
C         17.86434        0.53402        0.94905
C         17.59877        0.85184        2.26115
S         16.36768       -0.00919        2.95685
C         18.51083        1.83493        2.68640
C         19.37270        2.11807        1.65029
C         18.98500        1.33720        0.47327
C         19.50396        1.37686       -0.76535
C         18.97817        0.58250       -1.82850
N         18.54334       -0.06247       -2.68853
C         20.58664        2.23419       -1.08987
N         21.47533        2.93610       -1.34308
C         20.36873        3.03151        2.05125
C         20.16409        3.45043        3.36692
S         18.78457        2.67663        4.08879
C         20.96414        4.30985        4.16610
C         20.79896        5.64030        4.24308
C         21.58682        6.65189        5.03083
C         22.70071        6.50046        5.78151
C         23.34474        7.57143        6.47096
N         23.89515        8.41131        7.04895
C         23.35214        5.24419        5.94489
N         23.88212        4.21845        6.07050
C         20.91674        7.89915        4.77920
C         19.85041        7.76492        3.91776
C         19.19527        8.98377        3.63279
C         19.78572       10.02260        4.32603
S         21.11793        9.49471        5.28104
C         19.67203        6.38801        3.51471
O         18.80495        5.95761        2.78001
H         -2.10805      -14.21581       -0.34263
H         -3.50165      -13.29929        1.72362
H          2.68000      -11.78415       -1.66784
H          2.50667      -10.12127        1.78965
H          7.53942       -6.69190        3.34983
H          9.93986       -5.77548       -0.68865
H         14.40791       -3.74238        5.08036
H         12.87834       -3.80370        5.94183
H         13.03466       -2.66095        4.60821
H         14.13516       -4.63589       -1.80608
H         13.43851       -3.15954       -2.57798
H         13.00760       -4.75855       -3.16044
H         15.05031       -2.64521        3.38041
H         16.98653       -0.88531       -0.52661
H         21.20319        3.37614        1.45228
H         21.73232        3.78623        4.71892
H         18.34516        9.09891        2.97101
H         19.50413       11.06800        4.32254
