108

C         -2.85188        2.85057        1.98485
C         -3.28250        2.38774        0.75419
N         -3.69135        1.11284        0.55884
C         -3.67374        0.30694        1.65301
C         -3.22514        0.77939        2.88361
N         -2.80480        2.05715        3.07746
C         -4.14552       -1.05865        1.40794
C         -4.06777       -1.78683        0.24321
C         -4.61284       -3.13523        0.27429
C         -4.66963       -4.20813       -0.69484
C         -3.99192       -4.09297       -2.06400
C         -3.97365       -4.94542       -3.17173
C         -3.18711       -4.50749       -4.28130
C         -2.59593       -3.29786       -4.04191
S         -2.99675       -2.74207       -2.49704
C         -1.69554       -2.49878       -4.91963
Cl        -3.02535       -5.43348       -5.71076
C         -5.37080       -5.41250       -0.33627
C         -6.01282       -5.56680        0.90580
C         -5.92798       -4.50584        1.84159
C         -5.21625       -3.32706        1.53072
S         -4.98019       -1.94502        2.56769
C         -6.61579       -4.60629        3.16263
C         -6.16135       -4.27838        4.43478
C         -7.15837       -4.39479        5.44727
C         -8.34413       -4.88847        4.95539
S         -8.27506       -5.07188        3.25846
C         -9.60122       -5.21925        5.68821
Cl        -6.85915       -3.94747        7.07280
C         -6.67021       -6.86369        0.99828
C         -6.53321       -7.67496       -0.10223
S         -5.58725       -6.87702       -1.24982
C         -7.05497       -9.01851       -0.31936
C         -6.82276       -9.86889       -1.40719
C         -7.47376      -11.11923       -1.25417
C         -8.19276      -11.15311       -0.08671
S         -8.10493       -9.77869        0.84231
C         -8.82678      -12.40491        0.01184
C         -8.52736      -13.16651       -1.09366
C         -7.64666      -12.40201       -1.96566
C         -7.08090      -12.77293       -3.13086
C         -6.06805      -11.80499       -3.72046
N         -5.22780      -11.00201       -4.20958
C         -7.40115      -14.07135       -3.85332
N         -7.66683      -15.14850       -4.45265
C         -9.09918      -14.45469       -1.01532
C         -9.80201      -14.61918        0.18168
S         -9.78588      -13.14961        1.13150
C        -10.49343      -15.80259        0.64812
C        -10.63499      -17.02438        0.03888
C        -11.53491      -17.94818        0.72759
C        -11.97992      -19.24416        0.37433
C        -11.48797      -19.88378       -0.88137
C        -11.02336      -21.17523       -1.09436
C        -10.62358      -21.42661       -2.43775
C        -10.69043      -20.29530       -3.21631
S        -11.51332      -19.04326       -2.39228
C        -10.19085      -20.09444       -4.60794
Cl       -10.07277      -22.96204       -2.95431
C        -12.86538      -19.95475        1.21514
C        -13.35312      -19.39647        2.41774
C        -12.94064      -18.07638        2.79327
C        -12.00084      -17.39724        1.93489
S        -11.21492      -15.87632        2.16292
C        -13.48255      -17.43269        4.08427
C        -14.32517      -17.91267        5.08879
C        -14.57855      -17.01989        6.17908
C        -13.92103      -15.83104        6.03026
S        -13.14000      -15.78486        4.53442
C        -13.83653      -14.66645        6.95629
Cl       -15.57362      -17.45327        7.50175
C        -14.22510      -20.37880        3.03950
C        -14.36729      -21.58224        2.38597
S        -13.53142      -21.53732        0.92707
C        -15.15583      -22.74051        2.80303
C        -14.80581      -24.06269        2.54366
N        -15.55714      -25.11756        2.95104
C        -16.67922      -24.79585        3.63236
C        -17.02708      -23.48607        3.91007
N        -16.27392      -22.43457        3.51334
H         -2.53274        3.87717        2.12482
H         -3.31578        3.03477       -0.11509
H         -3.17431        0.14602        3.76221
H         -3.60800       -1.30337       -0.60221
H         -4.48402       -5.88879       -3.24503
H         -0.83349       -3.10107       -5.22403
H         -1.31117       -1.60506       -4.41607
H         -2.22637       -2.17265       -5.81995
H         -5.16257       -3.91304        4.64044
H         -9.51595       -6.20021        6.16811
H        -10.46843       -5.24419        5.02002
H         -9.80896       -4.47567        6.46448
H         -7.22633       -7.18876        1.86650
H         -6.20358       -9.57077       -2.24206
H         -8.99796      -15.24112       -1.75240
H        -10.15113      -17.23813       -0.90400
H        -10.97019      -21.92874       -0.31870
H         -9.12963      -20.36710       -4.66660
H        -10.27414      -19.05314       -4.93542
H        -10.74349      -20.72256       -5.31251
H        -14.77765      -18.88190        5.11908
H        -14.81122      -14.44617        7.40165
H        -13.49405      -13.75774        6.44879
H        -13.12916      -14.88352        7.76437
H        -14.75329      -20.26821        3.96624
H        -13.89801      -24.32623        2.01309
H        -17.29731      -25.62624        3.95337
H        -17.92815      -23.24478        4.46310
