99

C          3.69900       -4.26858       -1.93772
C          2.54291       -4.49067       -2.63059
S          2.71869       -5.87121       -3.65648
C          4.35939       -6.11340       -3.18561
C          4.74429       -5.15125       -2.29217
C          5.98102       -4.86803       -1.60850
O          7.03382       -5.46900       -1.69571
C          5.62442       -3.63436       -0.77575
C          4.14410       -3.38891       -0.88797
C          3.34210       -2.70087       -0.03400
C          1.92264       -2.66160       -0.18494
N          0.77656       -2.63945       -0.29467
C          3.84651       -2.10906        1.14856
N          4.26504       -1.67026        2.14155
C          6.56972       -2.88534       -0.17874
C          7.97412       -3.23658       -0.06671
C          9.02499       -2.53631       -0.51900
C         10.39696       -2.92852       -0.29205
C         11.28779       -1.99784       -0.65380
C         10.68083       -0.78512       -1.17267
S          8.94645       -1.04096       -1.41569
C         11.28895        0.41302       -1.25245
C         12.60964        0.73163       -0.73344
C         12.68704        1.99373       -0.27729
C         11.44656        2.71708       -0.45947
S         10.47828        1.91044       -1.66515
C         11.05214        3.75116        0.29873
C          9.71518        4.38139        0.28514
C          8.58773        3.53864        0.78615
C          7.66480        2.86353       -0.02626
C          6.64614        2.09442        0.53656
C          6.50120        2.03133        1.91501
C          7.40434        2.68530        2.73669
C          8.44781        3.41419        2.17905
F          9.31849        4.03088        2.99522
F          7.27461        2.62026        4.06930
F          5.47986        1.35017        2.45211
F          5.79899        1.41786       -0.25298
F          7.71754        2.97980       -1.36033
C          9.57393        5.71019       -0.01303
C         10.83529        6.50021       -0.20870
C         11.48232        6.64810       -1.44456
C         12.67163        7.37258       -1.54426
C         13.23512        7.95326       -0.41544
C         12.60793        7.81766        0.81284
C         11.41860        7.10510        0.91281
F         10.83641        6.97697        2.11509
F         13.15316        8.36266        1.90912
F         14.38189        8.63894       -0.50993
F         13.27842        7.50896       -2.73244
F         10.96132        6.09895       -2.55018
C          8.29244        6.34714       -0.24653
C          8.04392        7.37915       -1.13681
C          6.69849        7.34888       -1.65883
C          5.91481        6.51222       -0.86826
S          6.79478        6.06656        0.55411
C          4.63132        6.10193       -1.26152
O          3.96202        5.21865       -0.42257
C          2.56628        5.47634       -0.27568
C          4.23272        6.32738       -2.59921
C          4.97163        7.23416       -3.35814
C          6.13022        7.86839       -2.84837
O          6.81491        8.72193       -3.70593
C          7.51858        9.80894       -3.11362
S          4.31165        7.36097       -4.95186
C          3.30053        5.98153       -4.75191
C          3.24257        5.66377       -3.41056
C          2.70298        5.36524       -5.86956
C          3.25837        5.26969       -7.24675
N          2.51682        4.67691       -8.13886
C          1.41722        4.32633       -7.42470
C          1.54900        4.71245       -6.02553
C          0.29606        4.29184       -5.30858
S         -0.14989        4.41310       -3.71453
C         -0.52686        3.74201       -6.42494
C          0.22138        3.79613       -7.65068
N         -0.53610        3.34671       -8.68437
C         -1.66691        3.05267       -8.10643
C         -1.74323        3.25581       -6.64458
H          1.59206       -3.97395       -2.60505
H          4.93674       -6.93535       -3.58654
H          6.32614       -1.94443        0.30965
H          8.16293       -4.15563        0.48757
H         10.66735       -3.87326        0.16045
H         12.35415       -2.11559       -0.52430
H         13.40234        0.00586       -0.62559
H         13.54307        2.40577        0.23771
H         11.71635        4.11174        1.08205
H          8.86386        7.88578       -1.62206
H          2.30100        5.30770        0.77308
H          2.00475        4.75001       -0.86957
H          2.27053        6.49729       -0.54109
H          8.12336        9.53809       -2.25151
H          6.84469       10.61376       -2.81080
H          8.22393       10.18541       -3.85732
H          2.64388        4.84873       -3.02983
H          4.25605        5.67936       -7.46502
H         -2.55551        2.68430       -8.64048
H         -2.57586        3.09122       -5.99054
