130

C         -7.15135        5.05433       -5.01715
C         -7.38957        6.38929       -5.05237
C         -7.70378        7.09459       -6.25256
N         -7.95727        7.67717       -7.22007
C         -7.39107        7.20899       -3.88772
N         -7.38865        7.88333       -2.94264
C         -7.23404        4.11362       -6.18261
C         -7.20246        2.80524       -5.69887
C         -7.24882        1.66561       -6.49323
C         -7.33761        1.84541       -7.88697
C         -7.36793        3.15051       -8.39502
C         -7.30756        4.29927       -7.55963
S         -7.48112        3.14008      -10.11757
C         -7.48442        1.43718      -10.18608
C         -7.39348        0.87126       -8.93741
C         -7.05878        2.78321       -4.24547
O         -7.06304        1.77106       -3.57580
C         -6.88530        4.21430       -3.81685
C         -6.46651        4.54344       -2.58183
C         -6.16738        3.64519       -1.48485
C         -5.23951        2.67348       -1.55411
C         -4.97243        1.83071       -0.38580
C         -4.03210        0.84734       -0.41110
C         -3.74304        0.04461        0.72873
N         -3.50356       -0.59488        1.66957
C         -3.25998        0.57273       -1.58234
N         -2.63714        0.37234       -2.53507
C         -5.78516        2.10551        0.80598
C         -6.69044        3.10636        0.79548
O         -6.89123        3.91552       -0.32651
C         -7.53864        3.38866        1.90879
C         -8.83011        3.88255        1.93284
C         -9.45684        3.91700        3.24540
C        -10.79855        4.18258        3.65536
C        -11.88029        4.38507        2.62505
C        -12.05556        3.83945        1.35555
C        -13.30244        4.18987        0.73421
C        -14.08060        4.97925        1.54828
S        -13.17299        5.52071        2.88578
C        -15.49582        5.42380        1.36060
C        -11.10462        4.19964        5.04522
C        -10.10735        4.10328        6.02867
C         -8.78690        3.77289        5.62113
C         -8.49758        3.64895        4.23778
S         -7.01734        3.13505        3.51112
C         -7.70856        3.55075        6.64901
C         -6.34121        3.80928        6.60083
C         -5.63557        3.48080        7.80080
C         -6.47339        2.98739        8.77170
S         -8.05324        2.78558        8.16699
C         -6.14420        2.61000       10.17760
C        -10.66118        4.43507        7.32726
C        -12.02698        4.58641        7.35884
S        -12.65717        4.24950        5.82304
C        -12.84159        4.94280        8.50044
C        -12.41464        5.18995        9.78713
C        -13.46018        5.55822       10.71916
C        -13.41658        5.94479       12.08626
C        -12.12537        5.99224       12.85432
C        -11.67070        6.90870       13.80057
C        -10.43313        6.55409       14.41740
C         -9.89997        5.41100       13.87308
S        -10.97389        4.70305       12.74882
C         -8.59207        4.76559       14.19015
C        -14.62051        6.28086       12.74709
C        -15.87735        6.12022       12.15333
C        -15.91750        5.79847       10.77377
C        -14.71139        5.53516       10.07697
S        -14.51505        5.18491        8.39628
C        -17.22337        5.78073       10.04633
C        -17.68843        4.92948        9.05108
C        -18.98648        5.26692        8.55920
C        -19.52328        6.35012        9.21480
S        -18.40671        7.01571       10.31942
C        -20.87470        6.95772        9.03548
C        -16.92658        6.29154       13.14812
C        -16.48720        6.72257       14.38098
S        -14.81229        6.99363       14.29243
C        -17.23502        7.07244       15.54759
C        -16.75009        7.01137       16.80068
C        -17.34801        7.91748       17.83369
O        -18.48650        8.32530       17.90574
C        -16.20486        8.31104       18.68929
C        -15.04984        7.60334       18.31523
C        -15.45988        6.56775       17.34259
C        -14.88102        5.35360       17.17027
C        -15.51080        4.31165       16.43871
N        -16.03115        3.42956       15.87564
C        -13.63964        5.01865       17.76930
N        -12.61523        4.76989       18.26435
C        -13.82080        7.97880       18.83552
C        -13.77772        9.01023       19.78836
C        -14.96166        9.65432       20.20846
C        -16.19347        9.31276       19.64230
Br       -14.97330       11.02833       21.51964
Br       -12.05810        9.48883       20.44426
H         -7.20350        0.67562       -6.04812
H         -7.30959        5.27368       -8.03301
H         -7.54897        0.92770      -11.13784
H         -7.37145       -0.19996       -8.77356
H         -6.28612        5.57525       -2.29758
H         -4.71209        2.49721       -2.48582
H         -5.66938        1.47715        1.68422
H         -9.33798        4.15051        1.01612
H        -11.35477        3.16474        0.88204
H        -13.63099        3.82800       -0.23362
H        -15.53664        6.38860        0.84743
H        -16.01990        5.52038        2.31901
H        -16.05949        4.69635        0.76372
H         -5.83112        4.22915        5.74456
H         -4.56976        3.62264        7.94095
H         -5.16856        2.11542       10.22806
H         -6.88558        1.92632       10.60391
H         -6.10473        3.50281       10.81232
H        -10.06584        4.55699        8.22060
H        -11.36928        5.12902       10.05614
H        -12.20767        7.80231       14.09059
H         -9.95148        7.12519       15.20406
H         -7.91463        5.47451       14.68110
H         -8.08959        4.41142       13.28366
H         -8.73697        3.91716       14.86578
H        -17.12315        4.09384        8.65777
H        -19.50015        4.72795        7.77121
H        -21.15052        6.97511        7.97575
H        -20.91810        7.98672        9.40652
H        -21.63018        6.37177        9.57121
H        -17.97687        6.11160       12.95193
H        -18.20044        7.54844       15.37261
H        -12.89522        7.51448       18.50515
H        -17.11378        9.82393       19.91001
