90

C          0.76018        4.19190        3.38198
C          1.48158        5.24944        3.84835
C          2.84792        5.12958        4.20852
N          3.96727        5.03281        4.50910
C          0.93552        6.56741        3.93007
N          0.48393        7.62956        4.00643
C          1.26252        2.80498        3.11957
C          0.37605        2.18201        2.23897
C          0.48106        0.86645        1.80660
C          1.57734        0.11647        2.27824
C          2.49028        0.73079        3.14814
C          2.34505        2.07370        3.59256
S          3.75919       -0.35907        3.57855
C          3.09994       -1.62325        2.64493
C          1.93835       -1.24692        2.01498
C         -0.70489        3.09651        1.87332
O         -1.43315        2.96324        0.91306
C         -0.62648        4.22630        2.85855
C         -1.67707        4.95090        3.28694
C         -3.03020        4.72781        2.88592
C         -3.67815        3.54534        2.52356
C         -5.00721        3.76901        2.14742
C         -5.38024        5.07210        2.36943
S         -4.16204        6.06108        2.91312
C         -6.75583        5.19100        2.09109
C         -7.23383        3.96850        1.67239
C         -6.14032        3.00127        1.64831
C         -6.15591        1.71517        1.24466
C         -4.98474        0.89811        1.26983
N         -4.04859        0.21561        1.31663
C         -7.34173        1.09777        0.76948
N         -8.31162        0.57772        0.39448
C         -8.61800        4.01110        1.42557
C         -9.14266        5.27842        1.69338
S         -7.89727        6.38642        2.20031
C        -10.52133        5.75347        1.58083
C        -11.10177        6.75568        2.38792
C        -12.44082        7.21453        2.23704
C        -13.32636        6.74015        1.24865
C        -12.77224        5.70078        0.44521
C        -11.40122        5.21366        0.61540
N        -11.19703        4.23776       -0.28273
O        -12.37238        4.09578       -0.98012
N        -13.31957        4.99917       -0.56121
C        -14.69308        7.21728        1.04234
C        -15.67722        6.35857        0.57888
O        -16.85113        6.99852        0.40610
C        -16.65736        8.28373        0.77864
C        -15.35212        8.51136        1.18591
C        -14.84903        9.78994        1.71808
O        -13.98190        9.78587        2.58807
C        -15.42298       11.04646        1.21066
C        -15.96211       11.38763       -0.01712
C        -16.33986       12.77028       -0.09368
C        -16.02469       13.49461        1.04390
S        -15.38386       12.43600        2.24390
C        -16.16796       14.90407        1.29016
C        -17.34613       15.35666        1.76115
C        -17.59803       16.75894        2.00264
C        -16.58476       17.78664        1.71649
C        -15.36768       17.53299        1.23624
S        -14.79364       15.92432        0.88169
C        -17.16163       19.02747        2.05804
C        -18.43842       18.83331        2.52904
C        -19.06428       20.03837        2.89607
C        -18.21348       21.11319        2.68206
S        -16.68012       20.62942        2.03848
C        -18.70672       17.40568        2.49077
C        -19.93335       16.74563        2.90234
C        -21.04856       17.32217        3.36995
H         -0.26699        0.43504        1.14579
H          3.07279        2.47324        4.29011
H          3.59184       -2.58559        2.60141
H          1.36649       -1.91494        1.38098
H         -1.54561        5.71903        4.04432
H         -3.18750        2.58247        2.50743
H         -9.22725        3.17974        1.09085
H        -10.51059        7.21261        3.18413
H        -12.77048        7.96241        2.95499
H        -15.69224        5.30575        0.32171
H        -17.54691        8.89597        0.71813
H        -16.05508       10.70479       -0.85381
H        -16.77745       13.22771       -0.97458
H        -18.14884       14.65953        1.96542
H        -14.67248       18.34839        1.05043
H        -20.06054       20.16427        3.29524
H        -18.41413       22.15907        2.87262
H        -19.94959       15.66006        2.82747
H        -21.16171       18.38921        3.49208
H        -21.90623       16.71969        3.65180
