124

C         -4.40948       -2.29681        0.19465
C         -5.54032       -2.92599        0.59178
C         -5.54448       -4.21607        1.20010
N         -5.56772       -5.26698        1.68920
C         -6.84187       -2.35014        0.47515
N         -7.89745       -1.88586        0.37991
C         -2.99835       -2.79971        0.40525
C         -2.11900       -1.76779        0.07422
C         -0.73117       -1.86822        0.12875
C         -0.17928       -3.08016        0.58060
C         -1.04734       -4.12187        0.93189
C         -2.46088       -4.00571        0.83129
S         -0.16784       -5.49574        1.49352
C          1.33598       -4.73154        1.24844
C          1.19332       -3.46224        0.74575
C         -2.83524       -0.55710       -0.31405
O         -2.28835        0.51917       -0.43165
C         -4.28645       -0.94105       -0.42618
C         -5.22148       -0.20752       -1.05836
C         -5.00868        1.04467       -1.69282
N         -6.05095        1.94780       -1.62709
C         -5.65742        3.09728       -2.24992
C         -6.09952        4.40179       -2.56950
C         -5.04033        4.98867       -3.24769
N         -3.99855        4.08829       -3.32220
C         -4.40469        2.92580       -2.72574
C         -3.97761        1.61115       -2.42784
C         -4.85757        6.26528       -3.83720
C         -5.93070        6.95802       -4.25856
C         -5.79507        8.23494       -4.85943
C         -5.65120        8.54407       -6.18984
C         -5.52367        9.95853       -6.48103
C         -5.36700       10.65839       -7.71011
C         -5.39278        9.91970       -9.01351
C         -6.02055       10.24551      -10.21163
C         -5.78867        9.30817      -11.26261
C         -5.05065        8.22733      -10.84099
S         -4.47254        8.47500       -9.25039
C         -4.67232        6.98941      -11.58663
Cl        -6.39862        9.54674      -12.84506
C         -5.18215       12.06423       -7.70864
C         -5.12144       12.80047       -6.51401
C         -5.37291       12.11496       -5.28230
C         -5.57101       10.70592       -5.28947
S         -5.93595        9.65395       -3.94879
C         -5.41944       12.86926       -3.98120
C         -5.01135       12.50157       -2.70080
C         -5.20771       13.51094       -1.70903
C         -5.72642       14.66690       -2.24155
S         -6.15337       14.43620       -3.88057
C         -5.95243       15.98887       -1.58209
Cl        -4.78506       13.27057       -0.06624
C         -4.75826       14.18340       -6.81129
C         -4.73567       14.51219       -8.15206
S         -4.98447       13.11446       -9.07826
C         -4.52129       15.80668       -8.77872
C         -5.00522       16.25683       -9.99487
C         -4.62783       17.61495      -10.33134
C         -3.87733       18.18273       -9.30916
S         -3.56848       17.02338       -8.05171
C         -3.45855       19.53188       -9.34804
O         -2.72197       19.93513       -8.23748
C         -2.23492       21.26142       -8.16086
C         -3.83856       20.35673      -10.44609
C         -4.50929       19.75273      -11.52518
C         -4.90982       18.39595      -11.47973
O         -5.48999       17.70574      -12.54244
C         -6.50183       18.35932      -13.30077
S         -4.67231       20.89656      -12.82313
C         -4.32703       22.22332      -11.83754
C         -3.71787       21.77881      -10.69239
C         -4.54273       23.55074      -12.27800
C         -5.72088       24.18390      -12.17500
C         -7.05368       23.82623      -11.66268
C         -7.36718       23.24947      -10.47508
C         -8.70556       22.99002      -10.05885
N         -9.79242       22.76449       -9.72093
C         -6.39802       23.02976       -9.45482
N         -5.66212       22.92495       -8.56371
C         -8.03396       24.59113      -12.49071
C         -7.33621       25.60515      -13.15635
C         -5.88406       25.44084      -12.97325
O         -5.01367       26.15520      -13.42405
C         -7.94963       26.61159      -13.89098
C         -9.36178       26.60665      -13.95286
C        -10.06098       25.55395      -13.34587
C         -9.41303       24.51579      -12.63307
S        -11.76387       25.72228      -13.56858
C        -11.58585       27.20259      -14.39122
C        -10.26498       27.54877      -14.55079
H         -0.10544       -1.02708       -0.15927
H         -3.06363       -4.85967        1.12338
H          2.25698       -5.24748        1.48463
H          2.03350       -2.81776        0.51509
H         -6.24085       -0.56460       -1.13192
H         -6.95379        1.83991       -1.18092
H         -7.05169        4.85523       -2.33409
H         -3.08540        4.21027       -3.74162
H         -3.02958        1.15946       -2.68461
H         -3.85476        6.67007       -3.94086
H         -6.93395        6.54769       -4.18606
H         -5.62150        7.75392       -6.92730
H         -6.61490       11.13914      -10.35457
H         -5.34939        6.80149      -12.42733
H         -4.71659        6.10466      -10.94122
H         -3.65666        7.07851      -11.98375
H         -4.57222       11.54369       -2.45488
H         -6.24585       15.86997       -0.53391
H         -6.73796       16.56755       -2.07838
H         -5.03037       16.58191       -1.60600
H         -4.56243       14.92631       -6.04940
H         -5.64182       15.65797      -10.63613
H         -1.69156       21.38085       -7.21988
H         -3.06148       21.97243       -8.11277
H         -1.53431       21.47532       -8.97539
H         -6.92924       17.62455      -13.98946
H         -6.09620       19.13274      -13.95165
H         -7.30453       18.74956      -12.66734
H         -3.31786       22.50801      -10.00554
H         -3.71185       24.03015      -12.79538
H         -7.36093       27.38834      -14.37103
H        -10.01459       23.72770      -12.19458
H        -12.45849       27.74698      -14.72543
H         -9.95170       28.45373      -15.05755
