124

C         -2.23937        0.75720        0.65274
C         -1.38924        0.32774       -0.31146
C         -0.16422       -0.35365       -0.03969
N          0.82713       -0.91190        0.16383
C         -1.60535        0.56356       -1.69714
N         -1.78244        0.75937       -2.82934
C         -1.99060        0.67997        2.13067
C         -2.90954        1.50579        2.77576
C         -2.94149        1.71284        4.15283
C         -1.99510        1.02881        4.94821
C         -1.08470        0.17319        4.31557
C         -1.06815       -0.01948        2.90840
S         -0.03502       -0.57597        5.46572
C         -0.77344        0.22163        6.77785
C         -1.79730        1.04347        6.36935
C         -3.85298        2.09657        1.81764
O         -4.73081        2.87968        2.11572
C         -3.50180        1.52880        0.46686
C         -4.29493        1.65439       -0.61655
C         -5.51010        2.39488       -0.63434
S         -7.01667        1.64517       -0.25626
C         -7.93786        3.10711       -0.43423
C         -7.09903        4.13233       -0.80583
C         -5.78492        3.68273       -0.96038
C         -4.96845        4.75321       -1.40562
C         -5.64883        5.98037       -1.48043
C         -5.08333        7.28243       -1.80779
O         -5.53794        8.37583       -1.49838
O         -3.92870        7.10297       -2.51549
C         -3.25153        8.30997       -2.86832
S         -7.36515        5.90312       -1.10656
C         -9.37023        3.16593       -0.22965
C        -10.28877        4.01070       -0.81789
C        -11.67720        3.79143       -0.44575
C        -12.90369        4.39175       -0.87142
C        -12.90292        5.44532       -1.92602
C        -13.68570        6.58818       -2.03995
C        -13.36556        7.39790       -3.16542
C        -12.28609        6.90634       -3.85931
S        -11.88214        5.33956       -3.31458
C        -11.50687        7.54317       -4.95826
Cl       -14.21336        8.84222       -3.51371
C        -14.13109        4.02514       -0.25551
C        -14.16474        3.10970        0.80177
C        -12.95674        2.47349        1.15963
C        -11.73824        2.80268        0.54182
S        -10.17886        2.10761        0.82944
C        -12.97163        1.46552        2.23182
C        -12.25237        1.44004        3.41337
C        -12.54867        0.30323        4.21556
C        -13.51130       -0.50211        3.64676
S        -13.93811        0.05187        2.08402
C        -14.17876       -1.71120        4.20858
Cl       -11.79006        0.04462        5.72759
C        -15.49615        3.01201        1.36523
C        -16.45733        3.72721        0.68743
S        -15.75281        4.52263       -0.63794
C        -17.87638        3.79740        0.96564
C        -18.90304        4.02999        0.07475
C        -20.22061        3.91848        0.65216
C        -20.15457        3.63917        2.00972
S        -18.50573        3.58417        2.54112
C        -21.31319        3.41174        2.78162
O        -21.08486        3.27856        4.14495
C        -21.90267        2.40286        4.89811
C        -22.59266        3.40566        2.15426
C        -22.65386        3.79165        0.80454
C        -21.48721        4.03628        0.04697
O        -21.45135        4.22948       -1.33101
C        -22.45505        5.03097       -1.93637
S        -24.29649        3.93676        0.30987
C        -24.90499        3.07386        1.64128
C        -23.92037        3.02134        2.61153
C        -26.26731        2.64811        1.70203
C        -26.98568        2.16994        0.66689
C        -26.68943        1.89267       -0.74833
C        -25.59657        1.25208       -1.24160
C        -25.33221        1.10800       -2.63018
N        -25.09985        1.03259       -3.76537
C        -24.69408        0.57683       -0.37344
N        -24.00937       -0.04180        0.33659
C        -27.97180        2.01708       -1.49590
C        -29.00805        1.98478       -0.55625
C        -28.47296        2.07677        0.81723
O        -29.12169        2.11382        1.84128
C        -30.34540        1.83071       -0.89620
C        -30.65719        1.66829       -2.26625
C        -29.62943        1.78729       -3.21274
C        -28.27906        2.00794       -2.85019
S        -30.22930        1.58214       -4.81804
C        -31.80449        1.24370       -4.26621
C        -31.90627        1.35299       -2.89948
H         -3.68027        2.37390        4.59722
H         -0.34051       -0.70892        2.49919
H         -0.42545        0.05136        7.78859
H         -2.38868        1.63320        7.06033
H         -4.06689        1.16820       -1.55699
H         -3.91009        4.66878       -1.62256
H         -2.45635        8.05355       -3.57401
H         -2.79593        8.75108       -1.97692
H         -3.92527        9.02176       -3.35521
H         -9.97708        4.75894       -1.53008
H        -14.45828        6.86393       -1.33469
H        -12.15437        8.13030       -5.61593
H        -10.98358        6.80614       -5.57495
H        -10.75601        8.21893       -4.53126
H        -11.54411        2.21070        3.69360
H        -13.51513       -2.25333        4.88895
H        -14.48870       -2.40993        3.42494
H        -15.07024       -1.41205        4.77125
H        -15.73429        2.40117        2.22800
H        -18.74665        4.22140       -0.98073
H        -21.34314        2.11349        5.79401
H        -22.15455        1.48787        4.35445
H        -22.79337        2.93464        5.24349
H        -22.03575        5.45888       -2.85183
H        -22.78002        5.86077       -1.30127
H        -23.29513        4.40149       -2.24647
H        -24.13310        2.61247        3.58910
H        -26.76163        2.77113        2.66582
H        -31.11052        1.76637       -0.12779
H        -27.53306        2.08546       -3.63318
H        -32.58431        0.98709       -4.97031
H        -32.83219        1.18096       -2.36362
