107

C         -1.90597        1.57097       -0.80364
C         -0.87872        1.42872       -1.67315
C          0.42525        1.14015       -1.25383
N          1.52995        0.90974       -0.88553
C         -1.07556        1.51411       -3.08147
N         -1.22768        1.61805       -4.22939
C         -1.85691        1.39935        0.67656
C         -3.15709        1.14862        1.12705
C         -3.50845        1.02961        2.46298
C         -2.48627        1.20255        3.42125
C         -1.17641        1.44368        2.98078
C         -0.83612        1.54425        1.60754
S         -0.09563        1.61790        4.31632
C         -1.34673        1.42037        5.45574
C         -2.56461        1.21460        4.85373
C         -4.10534        1.17745        0.00507
O         -5.25333        0.78836        0.02610
C         -3.32741        1.75391       -1.13975
C         -3.88051        2.51108       -2.10010
C         -5.27253        2.78782       -2.11572
O         -5.77928        3.84395       -1.42247
C         -7.14626        3.88997       -1.53567
C         -7.51403        2.84350       -2.38961
C         -6.32013        2.12849       -2.74351
C         -6.19107        0.90708       -3.57631
F         -4.90550        0.45185       -3.63575
F         -6.93006       -0.13297       -3.11230
F         -6.56512        1.11843       -4.86488
O         -8.74222        2.51388       -2.88095
C         -9.86703        2.90463       -2.10415
C         -7.89636        4.87767       -0.84464
C         -7.35252        5.78533       -0.02788
C         -8.21449        6.69115        0.65483
C         -9.46242        7.18052        0.31871
C         -9.98094        8.20097        1.20204
C        -11.13235        9.03947        1.11982
C        -12.17139        8.88128        0.04620
C        -13.55449        9.02138        0.14250
C        -14.25987        8.82444       -1.08062
C        -13.41483        8.43527       -2.09055
S        -11.78014        8.54989       -1.60283
C        -13.77536        7.98437       -3.46579
C        -11.30235       10.06661        2.07881
C        -10.47312       10.18014        3.20220
C         -9.36250        9.29935        3.32742
C         -9.11168        8.35786        2.29886
S         -7.74761        7.30053        2.15562
C         -8.42119        9.39060        4.50195
C         -7.68964        8.40570        5.16572
C         -6.82862        8.90333        6.19750
C         -6.91581       10.26814        6.32311
S         -8.00815       10.91716        5.19852
C         -6.15274       11.18387        7.21815
C        -10.96782       11.23858        4.04644
C        -12.16976       11.80092        3.67013
S        -12.38240       11.43552        2.02481
C        -13.00450       12.76276        4.41038
C        -14.41809       12.83868        4.53764
O        -15.31023       11.97947        3.96421
C        -15.08668       10.65171        3.55383
C        -15.08705       13.92061        5.27710
O        -16.48158       14.03384        5.33253
C        -17.26620       12.83478        5.26274
C        -14.38851       14.97636        5.96467
C        -12.99029       14.79457        5.94377
C        -12.32194       13.75448        5.17042
N        -10.99945       13.93920        5.32481
O        -10.83379       14.96056        6.21777
N        -12.04034       15.45818        6.61950
C        -14.98715       16.07486        6.77361
C        -14.55301       17.31680        7.08447
S        -15.47171       18.33665        8.18382
C        -14.24314       19.59271        8.19547
O        -14.29344       20.63113        8.83259
C        -13.14307       19.21918        7.29731
C        -13.36076       18.04374        6.69297
H         -4.54346        0.87230        2.75259
H          0.18668        1.78207        1.33531
H         -1.13378        1.46855        6.51495
H         -3.48427        1.08336        5.41158
H         -3.28524        3.05006       -2.82866
H        -10.78649        2.58184       -2.59910
H         -9.98002        3.98610       -2.07673
H         -9.83175        2.45605       -1.10470
H         -8.96600        4.89307       -0.91086
H         -6.28062        5.82194        0.15040
H         -9.94811        6.87975       -0.59872
H        -14.06992        9.26642        1.05782
H        -15.33529        8.91190       -1.19356
H        -14.86340        7.90740       -3.57939
H        -13.35890        6.99117       -3.66722
H        -13.40633        8.68315       -4.22158
H         -7.71597        7.35271        4.91521
H         -6.15906        8.28750        6.78769
H         -5.86272       10.68513        8.14807
H         -6.73257       12.07483        7.48493
H         -5.24200       11.51385        6.70727
H        -10.47646       11.56452        4.94750
H        -16.06474       10.17202        3.42885
H        -14.50041       10.05354        4.25546
H        -14.69031       10.66841        2.55028
H        -17.35519       12.45339        4.23837
H        -18.29758       13.05658        5.54834
H        -16.88108       12.07319        5.95147
H        -15.93530       15.76489        7.21907
H        -12.28578       19.86348        7.17168
H        -12.64547       17.66604        5.97754
