102

C         -6.65964       -3.26117        1.75632
C         -6.74001       -4.01765        2.85970
C         -6.66258       -5.44126        2.84525
N         -6.59020       -6.59234        2.80581
C         -6.84980       -3.42572        4.15616
N         -6.95025       -2.92236        5.20689
C         -6.42850       -3.74879        0.36138
C         -5.86182       -2.69409       -0.37194
C         -5.63515       -2.73703       -1.74366
C         -6.02163       -3.90985       -2.43410
C         -6.54658       -4.98558       -1.69899
C         -6.75284       -4.92622       -0.29574
S         -6.91465       -6.32161       -2.72753
C         -6.46291       -5.46973       -4.13190
C         -6.01130       -4.20373       -3.84096
C         -5.69689       -1.51694        0.49791
O         -4.92170       -0.59902        0.32783
C         -6.58793       -1.78858        1.67725
C         -7.37256       -0.87279        2.28167
C         -7.51266        0.56552        1.92490
C         -7.55836        1.06540        0.61995
O         -7.70611        0.23341       -0.47375
C         -8.89948       -0.54853       -0.48564
C         -7.33363        2.46069        0.35465
O         -6.94752        2.77087       -0.93159
C         -5.65382        2.19053       -1.20416
C         -7.45571        3.45862        1.35668
C         -7.63804        2.89396        2.65577
C         -7.62753        1.50660        2.94052
C         -7.42845        5.00814        1.21086
C         -6.89583        5.81979        0.16987
O         -6.24895        5.20858       -0.87897
C         -6.67450        5.57518       -2.19700
C         -6.90563        7.28040        0.23739
O         -6.36939        7.99077       -0.82149
C         -4.94355        7.91060       -0.93371
C         -7.50954        8.02152        1.29858
C         -7.92444        7.19691        2.34656
C         -7.97411        5.78180        2.26478
C         -7.72800        9.55425        1.35422
C         -8.61969       10.27566        2.21872
O         -9.47042        9.69021        3.13678
C        -10.42667        8.75883        2.62473
C         -8.63217       11.72093        2.24936
O         -9.43402       12.44251        3.11351
C         -9.14051       12.24100        4.49811
C         -7.88648       12.48946        1.33536
C         -7.05659       11.80442        0.47167
C         -6.98970       10.40039        0.49300
C         -7.84286       13.96619        1.35666
C         -8.59628       14.86668        0.70350
C         -9.69239       14.79915       -0.27038
C         -9.70081       14.13282       -1.44995
C        -10.78245       14.20409       -2.37419
N        -11.66442       14.25815       -3.12873
C         -8.54033       13.47349       -1.95673
N         -7.60184       13.01420       -2.45412
C        -10.61663       15.92937        0.05683
C         -9.92556       16.82175        0.88350
C         -8.60772       16.26824        1.25104
O         -7.74935       16.82889        1.89945
C        -10.45062       18.03174        1.32574
C        -11.76270       18.36957        0.91863
C        -12.46986       17.46801        0.11039
C        -11.91857       16.23456       -0.32335
S        -14.04546       18.06832       -0.26366
C        -13.79749       19.49968        0.62585
C        -12.55298       19.53457        1.20896
H         -5.25118       -1.86737       -2.27064
H         -7.20590       -5.77633        0.20577
H         -6.55198       -5.93415       -5.10460
H         -5.69428       -3.50364       -4.60527
H         -8.06838       -1.18164        3.06010
H         -8.70353       -1.42373       -1.11456
H         -9.72158        0.01524       -0.93354
H         -9.21147       -0.91898        0.49421
H         -4.90420        2.49055       -0.46061
H         -5.32215        2.53478       -2.18699
H         -5.69213        1.10045       -1.26918
H         -7.73962        3.52553        3.53495
H         -7.69897        1.18862        3.97994
H         -5.77697        5.61696       -2.82463
H         -7.19288        6.53323       -2.28401
H         -7.33272        4.80917       -2.61036
H         -4.59967        8.85875       -1.36316
H         -4.65133        7.13551       -1.64440
H         -4.43893        7.76235        0.02486
H         -8.26038        7.62991        3.28557
H         -8.49924        5.30656        3.09136
H        -10.42081        7.88778        3.29244
H        -10.23409        8.42650        1.60095
H        -11.43348        9.17888        2.67761
H         -8.27877       11.59365        4.69439
H        -10.03192       11.82807        4.97941
H         -8.94017       13.21617        4.95939
H         -6.41355       12.33532       -0.22825
H         -6.28793       10.00814       -0.22575
H         -7.14608       14.33488        2.11353
H         -9.87089       18.68758        1.96914
H        -12.52596       15.57710       -0.93547
H        -14.57680       20.24837        0.68238
H        -12.21437       20.36318        1.81971
