94

C         -8.84421       -0.44787        2.30974
C         -8.62228       -0.75666        3.61476
C         -9.52211       -1.56828        4.36740
N        -10.25164       -2.23631        4.97694
C         -7.43753       -0.34564        4.29638
N         -6.47269       -0.00680        4.84305
C         -9.97109       -0.92650        1.45856
C         -9.57245       -0.82551        0.12311
C        -10.39157       -1.10044       -0.96250
C        -11.72974       -1.45424       -0.69285
C        -12.14495       -1.56551        0.64257
C        -11.27488       -1.31962        1.74024
S        -13.81582       -1.99840        0.73184
C        -13.99428       -1.98450       -0.96352
C        -12.81429       -1.68976       -1.60229
C         -8.23000       -0.24064        0.02325
O         -7.54026       -0.22167       -0.97291
C         -7.92944        0.28104        1.39754
C         -7.19077        1.38459        1.62165
C         -6.61279        2.14979        0.57144
C         -5.38518        1.94743        0.00785
C         -5.14333        2.84544       -1.03767
C         -3.89997        2.49152       -1.61846
C         -3.26803        1.39386       -1.02690
S         -4.09967        0.72957        0.37306
C         -1.99571        0.73475       -1.44952
F         -3.39168        3.11304       -2.65012
C         -6.08778        3.79507       -1.29254
S         -7.38474        3.50928       -0.15936
C         -6.17087        4.85941       -2.25345
C         -5.69051        6.07739       -1.92031
C         -5.73521        7.19744       -2.83502
C         -6.29347        7.07942       -4.19144
C         -6.81758        5.96078       -4.69101
S         -6.91661        4.46537       -3.79767
C         -6.15109        8.34560       -4.80101
C         -5.56752        9.21871       -3.91556
C         -5.36529       10.50444       -4.44613
C         -5.82118       10.54882       -5.75685
S         -6.47848        9.03048       -6.29011
C         -5.31674        8.49187       -2.69116
C         -4.66918        9.05687       -1.53273
C         -5.12464       10.13675       -0.87407
C         -4.47614       10.66372        0.27413
C         -4.51920       11.97128        0.68423
C         -3.86584       12.14697        1.90826
C         -3.92552       13.52158        2.24269
C         -4.56591       14.32689        1.29905
S         -5.23992       13.45368       -0.07479
C         -4.73468       15.81238        1.33194
F         -3.39409       14.01262        3.33175
C         -3.32884       11.04835        2.50501
S         -3.52663        9.74640        1.37274
C         -2.58419       10.89614        3.71238
C         -2.53510        9.78416        4.46285
C         -3.19558        8.47606        4.40563
C         -4.52954        8.24055        4.37866
C         -5.07686        6.93056        4.50758
N         -5.51476        5.86115        4.61216
C         -5.47739        9.30593        4.35203
N         -6.25614       10.16672        4.35733
C         -2.15456        7.47765        4.74620
C         -1.12880        8.14569        5.42202
C         -1.35296        9.60784        5.37240
O         -0.66809       10.46712        5.88385
C         -0.01593        7.50203        5.94309
C          0.09664        6.10763        5.72307
C         -0.89536        5.45468        4.97488
C         -2.03797        6.12243        4.47446
S         -0.51993        3.78428        4.75864
C          0.90374        3.90620        5.68487
C          1.11684        5.18636        6.13863
H        -10.02857       -0.97109       -1.97840
H        -11.67138       -1.38440        2.74813
H        -14.95474       -2.19071       -1.41666
H        -12.72585       -1.62409       -2.68059
H         -7.10242        1.80911        2.61692
H         -1.79497        0.92011       -2.50932
H         -2.04767       -0.35165       -1.31338
H         -1.15181        1.11466       -0.86531
H         -5.25401        6.25107       -0.94181
H         -7.21206        5.94688       -5.70266
H         -4.91652       11.34818       -3.93695
H         -5.80157       11.38991       -6.43773
H         -3.75638        8.54695       -1.23408
H         -6.03767       10.62584       -1.21010
H         -4.18353       16.25663        2.16738
H         -5.79021       16.08115        1.44181
H         -4.35480       16.26554        0.40942
H         -1.92695       11.72845        3.96981
H          0.75305        8.05845        6.47114
H         -2.76584        5.57398        3.88508
H          1.52066        3.03344        5.85031
H          1.97403        5.46049        6.74185
