106

C         -6.63631       -3.30404        1.22632
C         -5.72337       -4.11482        0.64550
C         -5.37147       -5.39001        1.18014
N         -5.08400       -6.42129        1.62584
C         -5.11084       -3.79676       -0.60239
N         -4.62811       -3.54044       -1.62832
C         -7.50953       -3.63918        2.39218
C         -8.62495       -2.79659        2.34795
C         -9.66719       -2.81942        3.26200
C         -9.61073       -3.78658        4.28424
C         -8.49513       -4.63409        4.35327
C         -7.41730       -4.56142        3.42934
S         -8.64188       -5.73648        5.67435
C        -10.17148       -5.12824        6.11728
C        -10.55914       -4.07896        5.31970
C         -8.52852       -1.86279        1.22404
O         -9.42765       -1.15437        0.82466
C         -7.13319       -2.01403        0.70051
C         -6.48146       -1.01839        0.07047
C         -7.00414        0.31408       -0.22941
C         -7.44761        1.11684        0.76051
C         -7.95858        2.44008        0.51476
C         -7.93448        3.04186       -0.82514
C         -7.51951        2.41270       -1.92440
S         -6.92932        0.77256       -1.92575
C         -8.45138        4.34601       -0.68550
C         -8.81388        4.56089        0.62297
C         -9.27750        5.86539        0.86149
C         -9.27753        6.59099       -0.32093
S         -8.69456        5.67118       -1.67317
C         -8.53038        3.34961        1.36280
C         -8.78039        3.14608        2.78140
C         -9.79524        3.69744        3.46840
C        -10.00649        3.44883        4.86104
C         -9.27686        2.65904        5.74708
C         -9.77605        2.72725        7.06680
C        -10.94212        3.44410        7.12048
S        -11.37538        4.16554        5.68488
C        -11.47079        3.31859        8.42386
C        -10.63391        2.52681        9.19152
C         -9.46408        2.17058        8.39628
C         -8.29224        1.58115        8.72604
C         -7.22232        1.69339        7.65223
N         -6.33473        1.78650        6.76142
C         -7.96926        0.91616       10.05414
N         -7.70131        0.36448       11.15591
C        -11.15312        2.34050       10.49056
C        -12.37551        3.00733       10.64911
S        -12.83865        3.85547        9.19336
C        -13.24889        3.07316       11.78109
C        -14.23617        2.16004       11.86792
C        -15.19354        2.17782       12.94459
C        -15.14729        3.18990       14.01011
C        -14.23695        4.16009       14.08995
S        -12.95497        4.36672       12.92752
C        -16.22108        2.90548       14.87823
C        -16.90229        1.80195       14.42325
C        -18.00385        1.45880       15.22254
C        -18.10638        2.34571       16.28615
S        -16.86417        3.56015       16.27348
C        -16.25563        1.35795       13.21093
C        -16.69488        0.21501       12.44113
C        -16.99712        0.29758       11.13615
C        -17.39689       -0.82741       10.32086
C        -17.32411       -0.93613        8.98454
C        -16.83135       -0.06868        7.90536
C        -17.11522        1.23998        7.69444
C        -16.71793        1.94401        6.52258
N        -16.38543        2.50242        5.56187
C        -17.98176        1.98761        8.54401
N        -18.68523        2.61025        9.21799
C        -16.32109       -0.97632        6.83487
C        -16.85914       -2.24578        7.05586
C        -17.52255       -2.29836        8.37404
O        -18.06410       -3.26537        8.86599
C        -16.76110       -3.28725        6.14096
C        -16.07902       -3.03272        4.92647
C        -15.45110       -1.79116        4.75234
C        -15.52471       -0.75822        5.71746
S        -14.63937       -1.70486        3.23192
C        -15.19429       -3.24557        2.76412
C        -15.91820       -3.85696        3.76091
H        -10.49714       -2.12363        3.17521
H         -6.57320       -5.23125        3.55505
H        -10.71590       -5.56510        6.94349
H        -11.49845       -3.55333        5.44659
H         -5.44031       -1.13624       -0.22251
H         -7.44014        0.77522        1.78940
H         -7.54843        2.91266       -2.88727
H         -9.58329        6.27577        1.81494
H         -9.57787        7.61999       -0.46419
H         -8.07457        2.47950        3.26468
H        -10.51262        4.33603        2.95950
H         -8.42623        2.08278        5.41337
H        -10.69798        1.76329       11.28680
H        -14.34324        1.39077       11.11042
H        -14.26319        4.87069       14.91030
H        -18.69152        0.64075       15.05176
H        -18.84830        2.35576       17.07316
H        -16.75843       -0.72715       12.98068
H        -16.91700        1.27429       10.67828
H        -17.72570       -1.70526       10.88536
H        -17.23411       -4.24576        6.33558
H        -15.01321        0.17928        5.52624
H        -14.95774       -3.63384        1.78232
H        -16.34534       -4.84687        3.65208
