68

C          1.48836       -1.21843        3.44743
C          2.36879       -0.16703        3.81001
C          2.23984        1.26025        3.22391
N          3.17280        2.07935        3.74623
S          4.11202        1.18933        4.77884
N          3.38790       -0.29453        4.67272
C          1.22241        1.60798        2.23918
C          0.39977        0.48271        1.90503
C         -0.57703        0.44886        0.93370
S         -1.41153       -1.05304        0.86437
C         -0.39182       -1.74915        2.04714
C          0.53253       -0.84169        2.50315
C          1.13468        2.96913        1.67644
C          2.26741        3.79647        1.42409
C          2.22301        5.11816        0.89638
C          1.03071        5.75001        0.51433
C         -0.12858        4.96904        0.73973
C         -0.08074        3.63030        1.34501
N         -1.35165        3.23315        1.51167
O         -2.15123        4.18595        0.92822
N         -1.41568        5.25233        0.46908
C          0.96288        7.10273       -0.04345
N         -0.23686        7.66272       -0.45700
C         -0.00083        8.92263       -0.91398
C         -0.65431       10.04968       -1.46017
C          0.35160       10.98489       -1.65935
N          1.55015       10.45018       -1.24262
C          1.32073        9.18020       -0.79464
C          1.96831        8.04126       -0.25637
C          0.36857       12.29733       -2.17704
C         -0.55439       12.70967       -3.06243
C         -0.61203       14.05397       -3.64559
C          0.21882       15.13428       -3.31080
C          0.09853       16.42037       -3.89672
C         -0.82662       16.77714       -4.91656
C         -1.64760       15.67870       -5.29383
C         -1.56357       14.35755       -4.64971
N         -2.51291       13.57368       -5.18761
O         -3.13692       14.33217       -6.15148
N         -2.58666       15.59025       -6.24786
C         -0.87094       18.11805       -5.52445
C          0.35285       18.87656       -5.75070
C          0.34209       20.30190       -6.34864
N          1.56460       20.84634       -6.43891
S          2.63381       19.71784       -5.87213
N          1.61158       18.47509       -5.48634
C         -0.85752       20.94750       -6.74505
C         -2.00279       20.18300       -6.51431
C         -3.24452       20.66610       -6.84619
S         -4.47558       19.56199       -6.40776
C         -3.34049       18.45212       -5.74500
C         -2.03360       18.85005       -5.92130
H          1.58578       -2.21165        3.86907
H         -0.90213        1.21357        0.24628
H         -0.52776       -2.78380        2.33291
H          3.26550        3.41611        1.65336
H          3.16827        5.64800        0.78992
H         -1.15405        7.23301       -0.42235
H         -1.70831       10.16935       -1.67203
H          2.47065       10.87599       -1.26939
H          3.02193        7.93040       -0.04507
H          1.16089       12.96653       -1.83386
H         -1.31846       12.01504       -3.40295
H          1.00512       15.00799       -2.56897
H          0.79828       17.17221       -3.52677
H         -0.85100       21.94460       -7.16869
H         -3.50501       21.60582       -7.31505
H         -3.73937       17.56117       -5.28516
