90

C         -2.13480        1.31919        0.95475
C         -1.68190        2.63986        1.14611
C         -0.31359        2.93338        1.19250
C          0.57179        1.88147        1.04352
C          0.11965        0.57830        0.86812
C         -1.22730        0.26797        0.81673
C          1.24709       -0.34665        0.75988
O          1.13840       -1.55399        0.71382
C          2.47054        0.50407        0.78644
C          2.04080        1.91429        1.02339
O          2.73936        2.89592        1.15847
C          3.76755        0.19394        0.63811
C          4.25969       -1.11645        0.36132
C          3.71366       -2.14857       -0.40523
C          4.48057       -3.32483       -0.32343
C          5.63277       -3.13135        0.40180
S          5.81529       -1.59450        1.00755
C          6.34845       -4.34856        0.44777
C          5.63514       -5.31177       -0.23405
C          4.41183       -4.71114       -0.77634
C          3.44691       -5.29190       -1.51669
C          3.52076       -6.65924       -1.88697
N          3.58528       -7.78026       -2.19017
C          2.31037       -4.57246       -1.98637
N          1.38868       -4.00228       -2.39670
C          6.28256       -6.56675       -0.18657
C          7.48725       -6.49571        0.52214
S          7.77745       -4.87679        1.11236
C          8.43658       -7.53351        0.79762
C          8.30010       -8.23405        1.94172
C          9.19193       -9.31581        2.27914
C         10.27829       -9.74310        1.38710
C         10.56145       -9.16603        0.21992
S          9.67682       -7.80475       -0.41426
C         10.91786      -10.82777        2.02106
C         10.31577      -11.07374        3.23237
C         10.88410      -12.15219        3.93020
C         11.92688      -12.69341        3.18865
S         12.17550      -11.87245        1.67778
C          9.23709      -10.12532        3.37838
C          8.36380      -10.07711        4.52266
C          7.03752      -10.25591        4.42730
C          6.16963      -10.18531        5.55201
C          6.44268       -9.95050        6.90133
C          5.26653       -9.95678        7.67322
C          4.14955      -10.18417        6.90010
S          4.45500      -10.40567        5.28684
C          3.01074      -10.16724        7.72940
C          3.42107       -9.94265        9.02226
C          4.86817       -9.78600        9.06706
C          5.64762       -9.53747       10.13703
C          5.11444       -9.39287       11.44876
N          4.70493       -9.29148       12.52843
C          7.05896       -9.42399       10.01670
N          8.21458       -9.34170        9.91188
C          2.34125       -9.94524        9.91279
C          1.12009      -10.06268        9.24844
S          1.36879      -10.33992        7.54117
C         -0.20692      -10.02067        9.76103
C         -0.57713       -9.25542       10.79699
C         -1.96593       -9.30546       11.33954
O         -2.90238       -9.96067       10.93421
C         -1.96570       -8.39785       12.49385
C         -2.99970       -8.10324       13.36296
C         -2.73400       -7.20268       14.40046
C         -1.45975       -6.62120       14.55376
C         -0.42798       -6.92632       13.66824
C         -0.71347       -7.81430       12.64931
C          0.19591       -8.26445       11.60288
O          1.31865       -7.83404       11.45660
H         -3.20359        1.11548        0.91422
H         -2.41040        3.44160        1.25532
H          0.03982        3.94992        1.33585
H         -1.56039       -0.75532        0.66853
H          4.50531        0.98897        0.74651
H          2.77750       -2.04694       -0.93864
H          5.92857       -7.49223       -0.62606
H          7.49908       -8.00316        2.63774
H         11.38364       -9.53351       -0.38605
H         10.57198      -12.53303        4.89408
H         12.55929      -13.53277        3.44548
H          8.86038       -9.90082        5.47336
H          6.59529      -10.45980        3.45338
H          7.44334       -9.78432        7.27829
H          2.41900       -9.81614       10.98362
H         -0.95669      -10.64870        9.27548
H         -3.97920       -8.55546       13.24003
H         -3.52308       -6.94684       15.10440
H         -1.27574       -5.92511       15.37063
H          0.56161       -6.49004       13.76837
