92

C          5.23741        8.81911       -0.98926
C          4.65653        9.95565       -0.44084
F          4.34341       10.98274       -1.24116
C          4.41836       10.05357        0.92325
C          4.75151        8.98803        1.76190
C          5.35947        7.83403        1.24121
C          5.62105        7.75868       -0.16027
C          6.30936        6.65837       -0.69916
C          6.79221        5.68099        0.15520
C          6.44610        5.72336        1.51495
C          5.73736        6.77267        2.07678
C          6.95126        4.51896        2.20905
O          6.79610        4.24595        3.37991
C          7.61867        3.69307        1.14495
C          7.75970        4.56906       -0.02541
C          8.83624        4.63808       -0.84717
C         10.01691        3.88616       -0.57290
N         10.99649        3.32652       -0.30274
C          8.94304        5.57814       -1.91204
N          9.00588        6.33385       -2.79123
C          7.77877        2.37324        1.33883
C          8.04970        1.42976        0.29299
C          8.70276        0.18223        0.31330
C          9.41661       -0.28855        1.49597
O          9.44636        0.32952        2.54834
O         10.11347       -1.44950        1.40165
C          8.49046       -0.36287       -1.01285
N          7.87718        0.55352       -1.77649
O          7.60218        1.62439       -0.98421
C          8.85342       -1.66132       -1.56571
C          9.21224       -1.81167       -2.86459
C          9.66528       -3.08138       -3.38872
C         10.14558       -4.13474       -2.48622
C          9.81437       -4.19803       -1.19777
S          8.67174       -3.07421       -0.50579
C         10.77911       -5.10286       -3.28422
C         10.60404       -4.78123       -4.60900
C         11.15305       -5.73797       -5.47989
C         11.75181       -6.75615       -4.74822
S         11.61357       -6.52556       -3.03379
C          9.88145       -3.52377       -4.66539
C          9.51955       -2.86577       -5.90056
C          8.41557       -2.11505       -6.04913
C          8.10952       -1.48990       -7.28851
C          7.45034       -0.28782       -7.55593
C          6.89875        0.58261       -6.53843
O          6.88127        0.35590       -5.33737
O          6.34786        1.72851       -6.98869
C          7.49089       -0.15980       -8.98127
N          8.02914       -1.25539       -9.52737
O          8.44429       -2.04572       -8.49448
C          6.97414        0.92379       -9.76746
C          6.97288        1.05974      -11.10084
C          5.99672        2.03697      -11.67802
O          5.51152        3.01375      -11.14795
C          5.66430        1.49749      -13.00686
C          4.69666        1.98935      -13.86276
C          4.47428        1.29984      -15.05646
C          5.19461        0.09692      -15.32989
C          4.93997       -0.58943      -16.52345
C          4.01994       -0.08208      -17.43525
C          3.33073        1.09613      -17.18565
C          3.54917        1.78288      -15.99263
F          3.80387       -0.73994      -18.58157
C          6.16392       -0.37829      -14.42454
C          6.43535        0.35469      -13.28191
C          7.45914        0.23775      -12.20873
C          8.72112       -0.21779      -12.38805
C          9.78307        0.15767      -11.50929
N         10.66528        0.52871      -10.85208
C          9.12143       -0.94331      -13.54133
N          9.43023       -1.55174      -14.48585
H          5.41899        8.79510       -2.06054
H          3.98378       10.96309        1.32622
H          4.56187        9.08176        2.82960
H          6.49711        6.62036       -1.76842
H          5.52566        6.77783        3.14291
H          7.57913        1.96409        2.33006
H          9.95663       -1.96453        0.59287
H          9.26085       -0.94991       -3.52656
H         10.13359       -5.03124       -0.57939
H         11.12741       -5.71418       -6.56232
H         12.26154       -7.63459       -5.12292
H         10.18384       -3.04311       -6.74507
H          7.73799       -1.94722       -5.21693
H          6.02896        2.17576       -6.17649
H          6.42861        1.69034       -9.22150
H          4.14306        2.88627      -13.59951
H          5.46043       -1.51022      -16.76883
H          2.62912        1.47479      -17.92216
H          3.00210        2.70534      -15.80735
H          6.69200       -1.30210      -14.64441
