118

C          0.44176       -0.31926       -5.32835
C         -0.62123        0.07374       -6.13002
F         -1.84149       -0.42253       -5.88927
C         -0.43363        0.94704       -7.19282
C          0.83811        1.46667       -7.44717
C          1.93764        1.07672       -6.66515
C          1.73290        0.14260       -5.60498
C          2.82408       -0.37084       -4.88813
C          4.10402       -0.01567       -5.27402
C          4.28448        1.00115       -6.22552
C          3.22987        1.55838       -6.92918
C          5.72459        1.32434       -6.35326
O          6.21397        2.18268       -7.05572
C          6.42432        0.40354       -5.39479
C          5.43671       -0.60195       -4.99485
C          5.64994       -1.93303       -4.84731
C          6.88539       -2.53334       -5.23339
N          7.84346       -3.04912       -5.63709
C          4.62078       -2.83878       -4.46119
N          3.77199       -3.54928       -4.10660
C          7.64206        0.71048       -4.91526
C          8.36651        0.07836       -3.79161
C          9.76976        0.05600       -3.83027
C         10.46453       -0.57314       -2.78008
C          9.80842       -1.21812       -1.73222
C          8.40875       -1.10666       -1.65122
C          7.71187       -0.42819       -2.66162
C         10.79530       -1.93382       -0.98346
C         12.03399       -1.64374       -1.55045
N         11.81419       -0.69251       -2.52322
C         12.84098        0.10653       -3.15683
C         13.21511       -2.27368       -1.12530
C         13.15204       -3.24124       -0.10405
C         11.91719       -3.49837        0.50404
C         10.74385       -2.84755        0.08852
C         14.35048       -4.01638        0.28000
C         14.43755       -5.32425        0.77361
C         15.78181       -5.72551        0.93834
C         16.64619       -4.72116        0.57205
S         15.93149       -3.30400        0.10819
C         17.96645       -5.18557        0.68737
C         17.94978       -6.48297        1.14323
C         16.55900       -6.90330        1.34185
C         16.10534       -8.08276        1.78898
C         16.98037       -9.14347        2.14296
N         17.71563       -9.98911        2.42660
C         14.71498       -8.33964        1.94673
N         13.58053       -8.54313        2.07996
C         19.25834       -6.99625        1.26947
C         20.21544       -6.05432        0.87597
S         19.46571       -4.56902        0.36010
C         21.68366       -6.18484        0.82142
C         22.51914       -5.06505        0.99739
C         23.91080       -5.22741        0.90393
C         24.49103       -6.47266        0.68803
C         23.65635       -7.59595        0.53312
C         22.26578       -7.43678        0.58834
C         25.90373       -6.28764        0.69253
C         26.15836       -4.91887        0.79302
N         24.93878       -4.30998        1.00663
C         24.73705       -2.92036        1.35806
C         27.46385       -4.39895        0.69692
C         28.53864       -5.29666        0.58960
C         28.28774       -6.67197        0.64124
C         26.98718       -7.17760        0.61960
C         29.91187       -4.76176        0.52490
C         30.99346       -5.30938       -0.05420
C         32.34034       -4.79868        0.36374
O         32.61442       -3.72846        0.86462
C         33.27188       -5.91419        0.11662
C         34.62134       -5.93505        0.43147
C         35.35134       -7.09045        0.12756
C         34.68504       -8.21869       -0.43491
C         35.42559       -9.36805       -0.73920
C         36.79732       -9.39351       -0.51669
C         37.45770       -8.29871        0.02347
C         36.73543       -7.15156        0.35493
F         37.49452      -10.48995       -0.84106
C         33.30501       -8.16759       -0.71104
C         32.60083       -6.99564       -0.47799
C         31.21546       -6.55501       -0.80167
C         30.43442       -7.06731       -1.78400
C         29.33987       -6.34335       -2.34317
N         28.48054       -5.75735       -2.85475
C         30.66636       -8.34860       -2.36586
N         30.83284       -9.41431       -2.78927
H          0.25188       -1.02167       -4.52101
H         -1.27810        1.21013       -7.82219
H          0.96784        2.14694       -8.28681
H          2.64951       -1.08969       -4.09224
H          3.42031        2.30281       -7.69732
H          8.17027        1.55371       -5.36265
H         10.31448        0.48210       -4.66828
H          7.87142       -1.55388       -0.82015
H          6.63752       -0.32503       -2.54244
H         13.74727        0.09814       -2.54561
H         12.48523        1.13924       -3.22512
H         13.04081       -0.30233       -4.14830
H         14.14874       -2.05138       -1.63177
H         11.83717       -4.23101        1.30435
H          9.79474       -3.09353        0.55582
H         13.56352       -5.93979        0.94822
H         19.52715       -7.98544        1.61997
H         22.10643       -4.08141        1.19611
H         24.08456       -8.57720        0.34985
H         21.64679       -8.31713        0.43010
H         25.69456       -2.42418        1.52351
H         24.15613       -2.88276        2.28481
H         24.19506       -2.43202        0.54506
H         27.63461       -3.32628        0.70723
H         29.09770       -7.39260        0.68031
H         26.81626       -8.24885        0.57738
H         30.04498       -3.84121        1.09748
H         35.08764       -5.06307        0.88245
H         34.95490      -10.24696       -1.17210
H         38.53123       -8.34296        0.17783
H         37.26640       -6.29961        0.77540
H         32.82818       -9.04991       -1.12535
