114

C          4.01702        6.61505       -4.92707
C          2.96087        7.45000       -5.30888
F          3.10968        8.28974       -6.36233
C          1.75363        7.42832       -4.60375
C          1.58411        6.55946       -3.52489
C          2.62661        5.70852       -3.13821
C          3.86727        5.74497       -3.83680
C          4.93289        4.92268       -3.41899
C          4.74536        4.06872       -2.32000
C          3.52463        4.03074       -1.68128
C          2.45543        4.83133       -2.05827
C          3.59586        3.12223       -0.58378
O          2.67816        2.84979        0.17562
C          4.97613        2.66178       -0.47758
C          5.77243        3.18783       -1.67983
C          6.92439        3.87771       -1.54702
C          7.04624        4.96559       -0.59963
N          7.24226        5.84717        0.12570
C          8.08878        3.50687       -2.30937
N          8.96279        3.12608       -2.97004
C          5.33763        1.80910        0.52544
C          6.66836        1.23408        0.76625
C          6.93706       -0.00151        1.39395
C          8.30648       -0.27812        1.38311
C          9.02807        0.72046        0.81494
S          8.10547        1.96547        0.31822
C         10.41006        0.50688        0.67721
C         10.83174       -0.70683        1.09509
Ge         9.44935       -1.76212        1.87699
C         10.23890       -2.05365        3.62530
C          8.88474       -3.45310        1.12093
C         12.17197       -0.89103        0.92984
C         12.74516        0.26480        0.39110
S         11.61184        1.47449        0.07294
C         14.14416        0.43821        0.14695
C         15.07547       -0.54182        0.42111
C         16.33574       -0.15035        0.03504
C         16.31524        1.09956       -0.45003
S         14.82801        1.83517       -0.51872
C         17.59805        1.45024       -0.83843
C         18.47498        0.41361       -0.67090
C         17.72391       -0.72448       -0.04489
C         18.05427       -2.00693        0.33227
C         16.88013       -2.75406        0.94350
N         15.90608       -3.37386        1.45057
C         19.42446       -2.66230        0.27329
N         20.56114       -3.20597        0.22436
C         19.72561        0.75584       -1.15774
C         19.69292        2.08852       -1.63128
S         18.19016        2.83366       -1.48027
C         20.75661        2.82466       -2.25132
C         20.87845        4.21567       -2.16303
C         21.99296        4.63446       -2.84177
C         22.65172        3.62105       -3.47985
S         21.97108        2.12511       -3.19653
C         23.76583        4.05360       -4.26095
C         24.04228        5.38089       -4.13846
Ge        22.88076        6.33145       -2.95687
C         22.87983        8.17317       -3.57677
C         23.22524        6.50310       -1.05153
C         25.06435        5.81059       -4.94892
C         25.54602        4.76969       -5.73610
S         24.75830        3.30051       -5.37709
C         26.72675        4.91132       -6.56545
C         27.06315        4.32415       -7.73327
C         28.47223        4.35967       -8.10464
O         29.36469        4.93674       -7.49919
C         28.67502        3.51654       -9.24003
C         29.88866        3.28742       -9.85985
C         29.90236        2.56208      -11.04627
C         28.68681        2.05522      -11.58496
C         28.72197        1.40487      -12.83067
C         29.93736        1.25950      -13.51647
C         31.12688        1.73659      -12.95828
C         31.11089        2.38241      -11.72600
F         29.96399        0.66263      -14.73270
C         27.46633        2.24609      -10.88592
C         27.47307        2.99157       -9.68605
C         26.36465        3.48225       -8.79149
C         25.02643        3.26336       -9.01226
C         24.02111        4.02847       -8.28180
N         23.10932        4.54717       -7.78427
C         24.43780        2.31791       -9.89870
N         24.09776        1.49557      -10.64511
H          4.94832        6.65127       -5.47959
H          0.94375        8.08490       -4.89347
H          0.64253        6.55502       -2.98833
H          5.89145        4.95647       -3.92568
H          1.52496        4.78918       -1.50609
H          4.56343        1.46158        1.20263
H          6.18451       -0.68140        1.76255
H         10.76965       -1.13554        3.95472
H         10.99842       -2.85888        3.50737
H          9.48032       -2.36397        4.36468
H          8.56526       -3.32053        0.06867
H          8.02910       -3.81951        1.72693
H          9.71620       -4.18308        1.18922
H         12.68699       -1.79392        1.21936
H         14.78687       -1.46734        0.84583
H         20.59088        0.11079       -1.16668
H         20.22947        4.87251       -1.59482
H         22.79476        8.21119       -4.68065
H         23.86734        8.60249       -3.29072
H         22.08191        8.76340       -3.08806
H         23.37587        5.50133       -0.59868
H         22.32663        6.96479       -0.58580
H         24.10604        7.14630       -0.87073
H         25.42395        6.82852       -4.98356
H         27.47509        5.52470       -6.07164
H         30.79540        3.71662       -9.45068
H         27.81188        1.03406      -13.28542
H         32.06520        1.62342      -13.48551
H         32.03735        2.76536      -11.31226
H         26.55555        1.86491      -11.31589
