120

C         11.66696        9.28802        3.90676
C         12.03954       10.40187        4.65042
F         11.56448       11.60663        4.31030
C         12.91743       10.28948        5.71952
C         13.42635        9.03719        6.06695
C         13.08812        7.89812        5.31881
C         12.20304        8.03094        4.20985
C         11.93180        6.92690        3.37935
C         12.60950        5.73430        3.58866
C         13.40203        5.60343        4.73843
C         13.64301        6.64787        5.61740
C         13.99437        4.25753        4.80741
O         14.69263        3.82827        5.70214
C         13.54101        3.54294        3.56592
C         12.86658        4.54208        2.72544
C         12.85435        4.60780        1.36814
C         13.69378        3.77310        0.56715
N         14.40435        3.14407       -0.09439
C         12.11803        5.57819        0.62886
N         11.48734        6.34394        0.02774
C         13.71282        2.21070        3.52775
C         13.24538        1.30168        2.53402
C         13.86945        0.13932        2.11559
C         13.18941       -0.57254        1.06430
C         12.11701        0.19326        0.59631
S         11.71970        1.40032        1.77420
C         11.49201       -0.11229       -0.62582
O         10.48161        0.66809       -1.18154
C         10.77323        2.06323       -1.26341
C         11.81862       -1.30665       -1.31094
C         12.75788       -2.16421       -0.74669
C         13.44506       -1.81878        0.42988
O         14.42696       -2.69832        0.88152
C         14.47433       -2.89158        2.29362
S         12.91506       -3.60731       -1.68794
C         11.78159       -3.10194       -2.88393
C         11.33081       -1.83379       -2.56276
C         11.49077       -3.98947       -3.98375
C         10.32485       -4.07105       -4.65231
C         10.03980       -5.01592       -5.71905
C          8.75792       -5.02201       -6.12623
C          7.92119       -4.07027       -5.42363
S          8.91403       -3.11652       -4.32235
C          6.59022       -3.88789       -5.51640
C          5.61764       -4.61724       -6.30458
C          4.35265       -4.18837       -6.14148
C          4.21999       -3.07277       -5.22225
S          5.77854       -2.63439       -4.59799
C          3.06793       -2.44437       -4.92640
C          2.91761       -1.38686       -3.96692
C          3.61270       -1.11772       -2.80208
C          3.02514       -0.14778       -1.92220
C          1.95548        0.46413       -2.58222
S          1.68227       -0.21971       -4.14835
C          1.20726        1.47955       -1.97071
O          0.15995        2.05358       -2.68480
C          0.21266        3.48091       -2.71934
C          1.38330        1.75492       -0.60311
C          2.41970        1.12511        0.07341
C          3.30130        0.23615       -0.57776
O          4.31816       -0.24984        0.23677
C          5.25913       -1.18948       -0.24781
S          2.41597        1.57287        1.75179
C          0.96609        2.46670        1.61178
C          0.62276        2.58086        0.28215
C          0.33674        3.03616        2.75600
C         -0.97811        3.29648        2.82209
C         -1.43844        4.33596        3.79495
O         -0.89724        4.69201        4.81969
C         -2.65154        4.92062        3.18858
C         -3.35786        6.01390        3.65822
C         -4.45656        6.45694        2.91154
C         -4.77907        5.82046        1.67522
C         -5.87783        6.27809        0.93710
C         -6.65672        7.32204        1.42233
C         -6.35775        7.94187        2.62797
C         -5.25337        7.51761        3.36757
F         -7.72160        7.72819        0.71913
C         -4.02023        4.72728        1.21828
C         -2.98787        4.24171        2.00578
C         -2.10655        3.05123        1.90539
C         -2.44600        1.87101        1.32730
C         -1.74844        0.66243        1.62375
N         -1.23204       -0.33847        1.90079
C         -3.58107        1.72467        0.48366
N         -4.49302        1.63801       -0.22516
H         10.99301        9.42960        3.06557
H         13.20998       11.17965        6.26766
H         14.12135        8.96625        6.90173
H         11.25267        7.06066        2.54396
H         14.30782        6.50281        6.46489
H         14.28262        1.74831        4.33600
H         14.82407       -0.16224        2.52598
H         10.26193        2.47583       -2.13897
H         11.84185        2.27746       -1.36931
H         10.35883        2.57683       -0.39066
H         14.81385       -3.91269        2.49159
H         13.50442       -2.75762        2.78572
H         15.22538       -2.22589        2.72692
H         10.63729       -1.27291       -3.17776
H         12.27591       -4.69446       -4.25422
H         10.79873       -5.66456       -6.13608
H          8.37946       -5.66731       -6.90738
H          5.88461       -5.44059       -6.95195
H          3.49830       -4.62944       -6.63793
H          2.15871       -2.77172       -5.42621
H          4.46782       -1.70645       -2.52703
H          0.09245        3.81002       -3.75487
H          1.14483        3.90585       -2.32907
H         -0.63570        3.87349       -2.14854
H          5.93437       -1.44366        0.57544
H          5.87082       -0.76187       -1.04841
H          4.77114       -2.12362       -0.53872
H         -0.21432        3.17336       -0.05446
H          0.98751        3.37361        3.56326
H         -3.06101        6.49416        4.58660
H         -6.15775        5.81846       -0.00728
H         -6.98924        8.74808        2.98754
H         -5.03145        8.01137        4.31176
H         -4.27259        4.27314        0.26432
