138

C          5.57551        5.39034        5.83869
C          5.27907        6.10003        6.99567
F          4.09367        6.71369        7.10085
C          6.19766        6.20577        8.03167
C          7.44074        5.58282        7.91996
C          7.77842        4.88411        6.75232
C          6.83142        4.79501        5.68762
C          7.17378        4.17538        4.47247
C          8.47112        3.73231        4.28526
C          9.35921        3.76459        5.37566
C          9.04369        4.30881        6.60551
C         10.65788        3.17623        4.99838
O         11.62325        3.04928        5.71343
C         10.48847        2.73411        3.57656
C          9.23978        3.32268        3.08232
C          9.00681        3.77760        1.82253
C         10.04093        3.85344        0.84522
N         10.88753        3.99133        0.06620
C          7.76437        4.35893        1.43362
N          6.74065        4.80689        1.11992
C         11.33404        1.80333        3.12037
C         11.20828        1.04752        1.92200
C         10.13137        0.59533        1.18587
C         10.48585       -0.27089        0.07601
C         11.86468       -0.49889        0.04076
S         12.64693        0.47661        1.21977
C         12.42238       -1.44780       -0.84000
O         13.75107       -1.86946       -0.81038
C         14.76951       -0.88738       -0.65396
C         11.57499       -2.19875       -1.69059
C         10.20586       -1.91556       -1.71596
C          9.65306       -0.93933       -0.85811
O          8.28597       -0.69409       -0.72191
C          7.51724       -0.60963       -1.92013
S          9.41365       -2.95393       -2.84578
C         10.81839       -3.81685       -3.24648
C         11.89713       -3.31601       -2.55359
C         10.77439       -4.91113       -4.18598
C          9.94454       -5.04659       -5.27531
C         10.16857       -6.24488       -6.05047
C          9.59619       -6.67528       -7.26849
C          8.57895       -5.80572       -7.90167
C          7.40169       -5.30770       -7.36444
C          6.69441       -4.45535       -8.26121
C          7.30984       -4.35998       -9.48959
S          8.81148       -5.17958       -9.48890
C          6.84483       -3.63914      -10.71175
Cl         5.24117       -3.66868       -7.81406
C          9.99169       -7.88721       -7.86593
C         10.90914       -8.73911       -7.23404
C         11.45299       -8.33425       -5.98177
C         11.12801       -7.06440       -5.44172
S         11.80856       -6.24885       -4.06592
C         12.39933       -9.24339       -5.27593
C         13.43728      -10.01530       -5.77950
C         14.13024      -10.76420       -4.78249
C         13.66170      -10.50551       -3.51502
S         12.25031       -9.54380       -3.57820
C         14.21015      -10.96011       -2.20184
Cl        15.42372      -11.81593       -5.17083
C         11.10672       -9.93180       -8.03336
C         10.44014       -9.93773       -9.24096
S          9.46470       -8.55729       -9.37040
C         10.44490      -10.96474      -10.25882
C          9.51172      -11.18151      -11.25414
C          9.67695      -12.43834      -11.94060
C         10.80859      -13.10294      -11.47870
S         11.68858      -12.13305      -10.35812
C         11.10303      -14.40537      -11.89593
O         12.20939      -15.03419      -11.33106
C         13.05261      -15.69451      -12.27521
C         10.18935      -15.10138      -12.71396
C          9.12223      -14.40116      -13.28780
C          8.85642      -13.06792      -12.90741
O          7.82825      -12.27992      -13.41751
C          6.57098      -12.91113      -13.63541
S          8.31586      -15.41913      -14.43309
C          9.10832      -16.83012      -13.90644
C         10.08102      -16.50335      -12.98934
C          8.67814      -18.10557      -14.36402
C          9.49249      -19.16146      -14.49303
C          8.85402      -20.51305      -14.41338
O          7.70027      -20.81150      -14.63645
C          9.90750      -21.40066      -13.89003
C          9.74090      -22.71778      -13.50116
C         10.84837      -23.39136      -12.97644
C         12.08548      -22.70017      -12.80700
C         13.18328      -23.39063      -12.27755
C         13.06814      -24.73690      -11.94928
C         11.87068      -25.41869      -12.11749
C         10.75800      -24.74498      -12.62037
F         14.13569      -25.38954      -11.47218
C         12.20543      -21.34946      -13.18804
C         11.12481      -20.70929      -13.77293
C         10.94145      -19.35681      -14.36908
C         11.91752      -18.60260      -14.92881
C         11.62160      -17.47344      -15.75978
N         11.41586      -16.56659      -16.45222
C         13.29629      -18.90541      -14.80949
N         14.43153      -19.13774      -14.68377
H          4.83134        5.35027        5.04789
H          5.94486        6.78316        8.91505
H          8.15445        5.67955        8.73591
H          6.43014        4.11268        3.68361
H          9.78653        4.33238        7.39870
H         12.19010        1.55536        3.75152
H          9.09693        0.79983        1.43978
H         14.86754       -0.57400        0.38692
H         14.63177       -0.03406       -1.32506
H         15.72690       -1.36078       -0.89350
H          8.04202       -0.08157       -2.72317
H          6.60066       -0.05580       -1.69344
H          7.18689       -1.60164       -2.23918
H         12.89944       -3.72061       -2.63706
H          9.22018       -4.28792       -5.54592
H          7.06801       -5.52838       -6.35746
H          5.85608       -4.00284      -11.01410
H          7.51940       -3.78002      -11.56274
H          6.76867       -2.56469      -10.51660
H         13.70557      -10.04622       -6.82774
H         14.47883      -12.02079       -2.23269
H         13.49937      -10.82181       -1.38069
H         15.11455      -10.38966       -1.95830
H         11.73030      -10.76148       -7.72704
H          8.65360      -10.54058      -11.42115
H         12.97709      -15.29199      -13.29164
H         12.82439      -16.76453      -12.27442
H         14.09002      -15.59264      -11.94277
H          6.52719      -13.31267      -14.65172
H          5.79142      -12.14546      -13.57294
H          6.34286      -13.67830      -12.88765
H         10.68471      -17.24186      -12.47867
H          7.60177      -18.24818      -14.46556
H          8.77307      -23.19914      -13.61293
H         14.14374      -22.90302      -12.13264
H         11.81157      -26.47165      -11.86080
H          9.82481      -25.29065      -12.74687
H         13.15098      -20.84113      -13.02229
