109

C          6.37951        6.12324       -7.71129
C          5.36645        6.72698       -8.44233
F          5.62078        7.15469       -9.68563
C          4.10207        6.91049       -7.89881
C          3.82916        6.45906       -6.60526
C          4.82988        5.84502       -5.83844
C          6.13390        5.70102       -6.40025
C          7.18000        5.18691       -5.62737
C          6.94015        4.88448       -4.29764
C          5.63420        4.90154       -3.79635
C          4.57236        5.38715       -4.53493
C          5.60650        4.32591       -2.43066
O          4.62949        4.17220       -1.73019
C          7.02591        3.91045       -2.15097
C          7.84127        4.58897       -3.16689
C          9.07035        5.13813       -3.03447
C          9.75695        5.14380       -1.79486
N         10.34357        5.20992       -0.79231
C          9.73022        5.82368       -4.09286
N         10.27144        6.35802       -4.96971
C          7.25378        2.87161       -1.32325
C          8.48627        2.05417       -1.18985
C          9.35333        1.71743       -2.24780
C         10.56691        0.97205       -2.06098
N         11.36165        0.76961       -3.13992
C         10.97979        1.20248       -4.35620
C          9.81179        1.87992       -4.52725
N          9.00331        2.13426       -3.48522
C         10.94599        0.44463       -0.79549
C         10.03560        0.66558        0.28212
C          8.77878        1.47250        0.07433
N          8.01940        1.54922        1.18239
S          8.80667        0.71854        2.37552
N         10.14229        0.21346        1.54591
C         12.16296       -0.36984       -0.55044
C         12.96125       -0.49528        0.56961
C         14.02180       -1.49418        0.47602
C         14.94262       -2.01499        1.43358
C         14.85292       -1.60355        2.87006
C         15.85546       -1.42089        3.81682
C         15.38817       -0.95109        5.07791
C         14.04171       -0.68066        5.05343
S         13.32839       -1.34873        3.65182
C         13.19885        0.03157        6.05554
Cl        16.44539       -0.68733        6.39664
C         15.97260       -2.89933        1.01273
C         16.14288       -3.24554       -0.33462
C         15.16461       -2.81168       -1.26629
C         14.10455       -1.97257       -0.83905
S         12.72547       -1.44634       -1.73135
C         15.27404       -3.28167       -2.68280
C         15.72530       -4.49749       -3.18595
C         15.70130       -4.58016       -4.61090
C         15.23266       -3.42509       -5.18941
S         14.88729       -2.24879       -4.00985
C         15.04651       -3.08546       -6.62837
Cl        16.22727       -5.97676       -5.44874
C         17.38329       -3.98035       -0.51939
C         18.07556       -4.25360        0.63794
S         17.14639       -3.74306        1.96984
C         19.39522       -4.85437        0.78529
C         20.48629       -4.83001       -0.10191
C         20.46608       -4.11788       -1.34391
N         20.43155       -3.49163       -2.32021
C         21.62333       -5.40582        0.50644
C         21.42017       -5.76575        1.79110
S         19.83600       -5.65362        2.28138
S         22.82382       -6.16698        2.63108
C         23.71108       -5.82913        1.23987
C         22.96669       -5.54918        0.15254
C         23.71148       -5.50539       -1.03929
C         23.15466       -5.61108       -2.36611
N         22.70115       -5.79185       -3.40914
C         25.09558       -5.49266       -0.76191
S         25.34323       -5.72993        0.96461
C         26.29296       -5.32217       -1.63946
C         27.57126       -5.91526       -1.42047
C         28.69918       -5.65085       -2.28311
N         29.92111       -6.14659       -2.03298
C         30.06930       -6.90371       -0.92975
C         29.00860       -7.19956       -0.11359
N         27.76644       -6.73592       -0.36390
C         28.61558       -4.86020       -3.41530
C         27.38245       -4.24086       -3.67378
C         26.20868       -4.44017       -2.76044
N         25.16328       -3.67738       -3.12492
S         25.55949       -2.92841       -4.54785
N         27.12955       -3.43112       -4.71223
H          7.36032        6.01976       -8.16814
H          3.33619        7.40741       -8.48540
H          2.83435        6.61309       -6.19281
H          8.16742        5.07849       -6.06689
H          3.58233        5.43357       -4.09181
H          6.41658        2.50559       -0.72187
H         11.64334        0.97964       -5.18228
H          9.48916        2.25568       -5.49064
H         12.75867        0.08263        1.46123
H         16.90652       -1.58623        3.62653
H         12.59060       -0.67076        6.63125
H         12.53396        0.75028        5.56181
H         13.81486        0.60659        6.75555
H         16.07885       -5.31054       -2.56515
H         15.84629       -3.51778       -7.23646
H         15.06867       -2.00163       -6.78876
H         14.08542       -3.46073       -6.99564
H         17.75924       -4.25985       -1.49438
H         31.06980       -7.26334       -0.72155
H         29.11908       -7.80803        0.77620
H         29.47310       -4.69592       -4.05911
