96

C         13.71514        6.01571      -10.22106
C         13.52090        6.80021      -11.35247
F         14.58279        7.20847      -12.05907
C         12.24756        7.18082      -11.75205
C         11.13930        6.76161      -11.01459
C         11.30481        5.98103       -9.85859
C         12.61860        5.61038       -9.44782
C         12.81335        4.88395       -8.25571
C         11.72510        4.58212       -7.44791
C         10.43893        4.89769       -7.91050
C         10.20171        5.58049       -9.09386
C          9.41787        4.41610       -6.96406
O          8.21559        4.51930       -7.08941
C         10.17261        3.72872       -5.85809
C         11.59784        4.05565       -6.05535
C         12.54591        4.21254       -5.09889
C         12.23208        4.16689       -3.70879
N         11.97774        4.18270       -2.57865
C         13.89728        4.56341       -5.38373
N         15.00451        4.82090       -5.61854
C          9.48462        2.87855       -5.07240
C          9.97006        1.89939       -4.09066
C          9.23566        1.55521       -2.96587
N          9.62233        0.64091       -2.04332
C         10.80581        0.04553       -2.26955
N         11.57931        0.25995       -3.35233
C         11.12780        1.16336       -4.24205
C         11.28770       -0.91571       -1.27002
C         10.70018       -1.35012       -0.09712
C         11.51437       -2.28475        0.61919
C         12.72903       -2.55632        0.00150
S         12.80114       -1.68486       -1.49148
C         13.81378       -3.42289        0.41252
C         15.07695       -3.12829        0.03606
C         16.20420       -3.94959        0.38040
C         16.07827       -5.14299        1.21902
C         14.92424       -5.59846        1.69982
S         13.39112       -4.82818        1.39747
C         17.37942       -5.66269        1.37448
C         18.27604       -4.87481        0.69310
C         19.60390       -5.31859        0.80816
C         19.64910       -6.46684        1.58871
S         18.08291       -6.96058        2.15364
C         17.52414       -3.81677        0.05928
C         18.11572       -2.78376       -0.75376
C         17.76434       -2.53289       -2.02726
C         18.32809       -1.48793       -2.86819
C         18.75948       -0.27400       -2.48418
C         19.28669        0.43284       -3.63280
C         19.80897        1.66878       -3.74132
C         19.89796        2.58943       -2.66711
N         19.97065        3.35161       -1.79653
C         20.31256        2.10287       -5.00605
N         20.72988        2.44558       -6.02526
O         19.21486       -0.40224       -4.75043
C         18.48487       -1.62415       -4.38672
C         17.18447       -1.50688       -5.22079
C         17.25980       -1.41918       -6.62973
C         16.11389       -1.23682       -7.41366
C         14.86334       -1.14158       -6.81152
C         14.75926       -1.22762       -5.42786
C         15.90478       -1.40442       -4.64296
C         19.38848       -2.82255       -4.76096
C         20.79573       -2.71124       -4.72169
C         21.62409       -3.80543       -4.99222
C         21.06702       -5.03949       -5.30647
C         19.68268       -5.17406       -5.36765
C         18.85089       -4.07890       -5.09965
C         18.75777        0.21122       -1.14956
N         18.77623        0.55125       -0.04065
H         14.73305        5.75532       -9.94205
H         12.12632        7.80686      -12.63073
H         10.14712        7.07080      -11.33817
H         13.82674        4.61131       -7.97689
H          9.18350        5.82194       -9.38801
H          8.39771        2.84736       -5.19282
H          8.27267        2.01676       -2.75678
H         11.76674        1.27112       -5.11231
H          9.72850       -1.00767        0.24160
H         11.21825       -2.72571        1.56485
H         15.30086       -2.24003       -0.54421
H         14.90356       -6.49637        2.30933
H         20.47966       -4.85868        0.36861
H         20.51729       -7.04981        1.86509
H         18.89101       -2.21778       -0.24283
H         17.00560       -3.16406       -2.49148
H         18.22521       -1.47525       -7.13352
H         16.20047       -1.15992       -8.49540
H         13.97254       -0.99842       -7.41778
H         13.78488       -1.14883       -4.94856
H         15.75729       -1.44021       -3.56802
H         21.27507       -1.76487       -4.48113
H         22.70536       -3.69317       -4.95337
H         21.71036       -5.89361       -5.50535
H         19.24810       -6.13851       -5.62114
H         17.77458       -4.22599       -5.16625
