102

C          2.66153        7.16146        1.17134
C          2.00747        8.38547        1.14951
F          0.90053        8.54996        1.88530
C          2.46245        9.42922        0.35447
C          3.61309        9.26101       -0.41941
C          4.28935        8.03210       -0.43227
C          3.78330        6.95668        0.36030
C          4.35439        5.68077        0.27267
C          5.36003        5.46907       -0.65368
C          5.93885        6.55562       -1.32664
C          5.42453        7.83610       -1.23575
C          7.09555        6.09758       -2.13505
O          7.83460        6.78804       -2.80256
C          7.17446        4.61525       -1.90163
C          5.90745        4.24267       -1.27097
C          5.13405        3.17700       -1.58988
C          5.42254        2.38151       -2.73780
N          5.58772        1.79412       -3.72417
C          3.91735        2.87933       -0.91480
N          2.95252        2.62920       -0.31868
C          8.32673        3.94633       -2.07330
C          8.58732        2.62351       -1.58281
C          8.15237        1.94582       -0.45631
O          7.32014        2.50430        0.46093
C          7.24127        1.69916        1.64670
C          7.08675        0.20520        1.32739
C          5.79255       -0.12484        0.58327
O          8.21078       -0.28052        0.57488
C          8.61175        0.60227       -0.37898
C          9.52005        0.27880       -1.36681
S          9.72177        1.62543       -2.42472
C         10.24972       -0.96251       -1.55537
C         10.69601       -1.55665       -2.71913
O         10.49158       -1.02251       -3.95064
C         10.73416       -1.99536       -4.97556
C         12.03147       -2.78239       -4.73790
C         13.28445       -1.90704       -4.79656
O         11.98833       -3.49971       -3.49049
C         11.41175       -2.76952       -2.49786
C         11.44212       -3.15050       -1.16993
S         10.70521       -1.93404       -0.20606
C         12.03366       -4.32476       -0.56060
C         11.64938       -5.02515        0.56607
O         10.55326       -4.71372        1.30364
C         10.66798       -5.28950        2.61333
C         11.01833       -6.78503        2.54295
C          9.90298       -7.60554        1.89133
O         12.27880       -7.01643        1.87373
C         12.49878       -6.12916        0.86530
C         13.62480       -6.17916        0.06429
S         13.43959       -5.04823       -1.22902
C         14.74210       -7.06861        0.11300
C         16.00916       -6.74874       -0.20304
C         16.97449       -7.86343       -0.47539
O         16.90205       -9.02570       -0.12377
C         18.02380       -7.27741       -1.33537
C         19.11033       -7.93509       -1.89122
C         20.00403       -7.18952       -2.67473
C         19.72792       -5.81675       -2.94716
C         20.62526       -5.07233       -3.72150
C         21.79175       -5.66142       -4.19158
C         22.07916       -6.99353       -3.92742
C         21.18214       -7.76125       -3.18141
F         22.66029       -4.92501       -4.89640
C         18.59031       -5.19838       -2.40385
C         17.77923       -5.91039       -1.53500
C         16.67848       -5.50714       -0.62301
C         16.58357       -4.27888       -0.04554
C         15.86232       -4.08009        1.16736
N         15.34780       -3.89752        2.19337
C         17.30370       -3.14253       -0.50803
N         17.87886       -2.21528       -0.91180
H          2.25549        6.36540        1.78954
H          1.91075       10.36342        0.33227
H          3.95204       10.08600       -1.04236
H          3.95339        4.86706        0.86996
H          5.86127        8.64123       -1.81960
H          9.15540        4.45999       -2.56167
H          6.38676        2.05707        2.23060
H          8.14867        1.87643        2.23836
H          7.08302       -0.34789        2.27382
H          5.76835        0.31865       -0.41655
H          4.91686        0.22265        1.13870
H          5.70896       -1.20698        0.43672
H         10.77656       -1.46682       -5.93353
H          9.87427       -2.67705       -5.00766
H         12.11876       -3.54248       -5.52313
H         13.29093       -1.14245       -4.01291
H         13.36598       -1.40610       -5.76627
H         14.18125       -2.51728       -4.64350
H          9.71469       -5.13840        3.13078
H         11.43858       -4.73821        3.16848
H         11.14635       -7.15310        3.56780
H          9.75931       -7.34160        0.83865
H          8.95253       -7.45541        2.41545
H         10.14554       -8.67282        1.91913
H         14.50992       -8.10242        0.37239
H         19.27054       -8.99061       -1.68572
H         20.44960       -4.02205       -3.93950
H         23.00464       -7.42366       -4.29717
H         21.42475       -8.80239       -2.97819
H         18.39249       -4.15824       -2.64594
