78

C          1.26297        0.43212        5.00865
C          0.11322        0.98992        5.55497
F         -0.76878        0.19744        6.17757
C         -0.14715        2.34875        5.44539
C          0.76145        3.17435        4.78113
C          1.91932        2.63548        4.19669
C          2.17026        1.23678        4.30759
C          3.27994        0.65761        3.66324
C          4.08348        1.43961        2.84538
C          3.84767        2.82334        2.79783
C          2.80399        3.44168        3.46966
C          4.78822        3.48024        1.87334
O          4.86531        4.67007        1.64857
C          5.63958        2.38490        1.30897
C          5.07268        1.10877        1.77523
C          5.05422       -0.07010        1.10634
C          5.28592       -0.12342       -0.29887
N          5.35769       -0.16070       -1.45725
C          4.63678       -1.29463        1.69236
N          4.32582       -2.30186        2.18976
C          6.78312        2.73304        0.69539
C          7.82834        1.82270        0.36674
N          8.11738        0.69883        1.00440
C          9.21290        0.12690        0.42720
C          9.74649        0.74325       -0.66450
S          8.88655        2.21233       -0.97209
N         10.80743        0.14581       -1.27180
C         11.13101       -0.93409       -0.57991
S         10.13151       -1.29450        0.79657
C         12.26604       -1.76753       -0.91407
N         12.95276       -2.44174       -0.00652
C         13.98319       -3.07353       -0.63107
C         14.08510       -2.93119       -1.98391
S         12.81497       -1.90519       -2.55747
N         15.11416       -3.56649       -2.60772
C         15.82253       -4.20776       -1.69278
S         15.27535       -4.06573       -0.04989
C         16.99571       -4.99164       -2.01062
N         17.38893       -6.02211       -1.28017
C         18.47896       -6.57753       -1.87473
C         18.95544       -5.98169       -3.00465
S         17.97732       -4.60698       -3.39239
N         20.02635       -6.55606       -3.62216
C         20.36572       -7.65057       -2.96107
S         19.45292       -7.95682       -1.49811
C         21.40877       -8.55490       -3.30518
C         21.84635       -8.75982       -4.55503
C         23.19535       -9.39440       -4.69881
O         23.77689      -10.09702       -3.89947
C         23.71742       -8.90690       -5.98766
C         24.99658       -9.11172       -6.47695
C         25.34652       -8.49275       -7.68162
C         24.40391       -7.65119       -8.34498
C         24.78177       -7.01987       -9.53801
C         26.05068       -7.22757      -10.06904
C         26.96842       -8.05494       -9.43688
C         26.61935       -8.68410       -8.24206
F         26.39133       -6.62123      -11.21360
C         23.11006       -7.46933       -7.81156
C         22.75052       -8.12973       -6.64586
C         21.47738       -8.24833       -5.88173
C         20.24060       -8.22509       -6.43773
C         19.10771       -8.81334       -5.79102
N         18.19870       -9.35497       -5.32199
C         20.00136       -7.75822       -7.75923
N         19.81742       -7.36231       -8.84512
H          1.41380       -0.64010        5.10491
H         -1.06162        2.75442        5.86686
H          0.53863        4.23612        4.69416
H          3.43526       -0.41106        3.76761
H          2.64887        4.51247        3.36569
H          6.97732        3.78806        0.50230
H         21.94570       -9.01761       -2.47759
H         25.69753       -9.73201       -5.92464
H         24.09746       -6.36763      -10.07427
H         27.94937       -8.20454       -9.87713
H         27.34898       -9.32871       -7.75531
H         22.41713       -6.81156       -8.32891
