101

C          0.64644        2.45288        0.36997
C         -0.55569        2.94462        0.86477
F         -1.28602        3.77434        0.10873
C         -0.99948        2.60980        2.13658
C         -0.23543        1.75416        2.93151
C          0.99190        1.25587        2.46638
C          1.44717        1.62405        1.16602
C          2.71597        1.21686        0.71292
C          3.55562        0.52394        1.57259
C          3.05232        0.09965        2.81310
C          1.79028        0.43705        3.27467
C          4.07400       -0.66099        3.55513
O          3.93381       -1.19556        4.63480
C          5.29776       -0.65754        2.68441
C          5.02684        0.26978        1.57331
C          5.90986        1.10359        0.96928
C          7.19165        1.35579        1.54481
N          8.19056        1.62035        2.06610
C          5.59138        1.88033       -0.17972
N          5.32935        2.46634       -1.14796
C          6.27887       -1.54163        2.94443
C          7.47755       -1.86003        2.15439
C          8.65580       -2.26577        2.75780
N          9.80396       -2.54175        2.09511
C          9.76448       -2.41445        0.75904
N          8.65984       -2.09260        0.05814
C          7.54122       -1.85451        0.77464
C         11.02754       -2.53051        0.01401
S         10.97671       -3.13103       -1.61046
C         12.66506       -2.88597       -1.89518
C         13.22327       -2.26553       -0.79040
C         12.33163       -2.20471        0.34562
C         12.74861       -1.76478        1.61534
C         14.11365       -1.36457        1.67036
S         14.74977       -0.95267        3.31305
C         15.37572       -2.60472        3.78986
C         16.02124       -2.54863        5.16426
C         14.95639       -1.30490        0.50345
S         16.62123       -0.58769        0.51501
C         16.14923        1.12772        0.10464
C         17.35604        2.04462        0.00550
C         14.53943       -1.77903       -0.76085
C         13.20693       -3.31441       -3.15158
C         14.48242       -3.72653       -3.25401
C         15.17303       -4.11064       -4.48428
C         16.53965       -3.91693       -4.60757
N         17.27584       -4.29432       -5.67550
C         16.59439       -4.91036       -6.65487
N         15.26880       -5.12379       -6.66736
C         14.58973       -4.73389       -5.56674
C         17.32987       -5.33508       -7.83678
C         18.61820       -5.68147       -7.96236
C         19.14935       -5.70992       -9.36299
O         18.52493       -5.76014      -10.40215
C         20.60757       -5.59251       -9.23844
C         21.49542       -5.45650      -10.29474
C         22.85532       -5.32873      -10.00110
C         23.28286       -5.30971       -8.64165
C         24.65306       -5.18914       -8.36744
C         25.57204       -5.09705       -9.40856
C         25.16102       -5.11109      -10.73407
C         23.80335       -5.22224      -11.03130
F         26.87754       -4.99781       -9.12645
C         22.33922       -5.42533       -7.59526
C         20.99188       -5.59925       -7.88987
C         19.76910       -5.84592       -7.05944
C         19.76927       -6.39025       -5.81551
C         18.59696       -6.93509       -5.20416
N         17.68505       -7.42548       -4.68765
C         20.96121       -6.58230       -5.05944
N         21.93501       -6.73333       -4.44587
H          0.96069        2.76010       -0.62427
H         -1.93252        3.02486        2.50488
H         -0.59193        1.50758        3.92996
H          3.03361        1.51900       -0.28000
H          1.47174        0.12362        4.26555
H          6.19127       -2.14027        3.85568
H          8.72946       -2.37762        3.83758
H          6.67159       -1.63947        0.16157
H         12.11215       -1.76255        2.49095
H         16.11043       -2.96226        3.05955
H         14.53713       -3.30942        3.80784
H         16.87700       -1.86492        5.18320
H         16.38849       -3.54269        5.44292
H         15.30504       -2.23428        5.93091
H         15.47658        1.49880        0.88294
H         15.60907        1.13799       -0.84842
H         17.96617        2.01806        0.91380
H         17.01599        3.07757       -0.13237
H         17.98937        1.79308       -0.85197
H         15.19395       -1.73168       -1.62067
H         12.54904       -3.31054       -4.01726
H         15.11647       -3.78123       -2.37147
H         17.11272       -3.43660       -3.81730
H         13.52862       -4.96529       -5.58812
H         16.70692       -5.28617       -8.72976
H         21.12605       -5.45612      -11.31702
H         25.02649       -5.17869       -7.34681
H         25.89882       -5.03912      -11.52711
H         23.49254       -5.23348      -12.07447
H         22.69996       -5.38036       -6.57222
