99

C         10.50288        8.91375        4.90517
C         10.02029        9.84897        5.81041
F         10.79992       10.87694        6.16991
C          8.74891        9.72955        6.35344
C          7.92916        8.66600        5.96674
C          8.38764        7.70754        5.04698
C          9.70558        7.82578        4.52658
C         10.21008        6.85184        3.64629
C          9.44319        5.74135        3.30982
C          8.11847        5.71164        3.74527
C          7.57599        6.64779        4.61745
C          7.40118        4.60814        3.09849
O          6.21808        4.37552        3.23532
C          8.41371        3.87539        2.24160
C          9.72446        4.53154        2.46531
C         10.98203        4.14374        2.13609
C         12.14600        4.76015        2.68727
N         13.09233        5.24569        3.14920
C         11.33053        3.08996        1.25575
N         11.77288        2.30399        0.52608
C          7.91407        2.81281        1.58775
C          8.58386        1.78019        0.81781
C          8.84502        1.82011       -0.56245
C          9.53548        0.77393       -1.24498
C         10.01070       -0.41311       -0.62533
C          9.67886       -0.49181        0.75972
C          8.97456        0.58773        1.46929
N          8.82462        0.22635        2.75998
N          9.37057       -0.99463        2.77812
N          9.92377       -1.46646        1.66000
C          9.36378       -1.80210        3.97391
C         10.82494       -1.44846       -1.26473
C         10.77306       -2.80817       -0.89620
C         11.69126       -3.79328       -1.33046
C         12.76074       -3.57517       -2.23300
C         12.78763       -2.23421       -2.70481
C         11.83534       -1.18743       -2.22828
N         12.15381       -0.03495       -2.85111
N         13.19012       -0.38473       -3.61592
N         13.61952       -1.64989       -3.59159
C         13.86137        0.59588       -4.43455
C         13.76512       -4.59859       -2.56079
C         15.11569       -4.33554       -2.91529
C         16.13032       -5.32883       -3.05830
C         15.90760       -6.70434       -2.85111
C         14.55423       -7.02558       -2.58701
C         13.50719       -5.99233       -2.42652
N         12.36570       -6.63086       -2.09320
N         12.73782       -7.90516       -2.01279
N         13.98144       -8.22834       -2.37370
C         11.91901       -8.85284       -1.29204
C         16.99479       -7.69716       -2.88820
C         17.13716       -8.86083       -2.22844
C         18.21629       -9.81561       -2.66068
O         19.21622       -9.57196       -3.30315
C         17.78462      -11.14458       -2.17985
C         18.44156      -12.35035       -2.36222
C         17.85133      -13.51022       -1.83879
C         16.56459      -13.43505       -1.22789
C         15.96891      -14.60332       -0.73488
C         16.65197      -15.81187       -0.79512
C         17.91930      -15.89263       -1.35558
C         18.51275      -14.74780       -1.89066
F         16.08447      -16.91301       -0.28589
C         15.92160      -12.19343       -1.07904
C         16.57271      -11.03773       -1.48345
C         16.31366       -9.59314       -1.25856
C         15.69649       -9.09448       -0.16153
C         15.84767       -7.73502        0.23771
N         15.96920       -6.63934        0.59494
C         14.86092       -9.88013        0.68102
N         14.12611      -10.50834        1.32142
H         11.50799        9.04271        4.51152
H          8.40372       10.46658        7.07163
H          6.93221        8.58910        6.39695
H         11.20393        7.00812        3.24080
H          6.54358        6.55095        4.94484
H          6.84945        2.58724        1.69721
H          8.54783        2.69613       -1.13807
H          9.74179        0.92435       -2.30636
H          8.70132       -1.35096        4.71626
H         10.38569       -1.85416        4.35643
H          9.00183       -2.80114        3.71498
H         10.01480       -3.13849       -0.18452
H         11.56062       -4.77388       -0.87413
H         13.18361        1.43175       -4.62597
H         14.14630        0.12959       -5.38124
H         14.74705        0.94003       -3.89531
H         15.43471       -3.29898       -3.04166
H         17.13838       -4.98147       -3.29213
H         11.88378       -8.53819       -0.24424
H         12.36915       -9.84645       -1.36252
H         10.91949       -8.85670       -1.72828
H         17.78401       -7.42436       -3.59288
H         19.40080      -12.37420       -2.87191
H         14.98507      -14.58675       -0.27316
H         18.43919      -16.84536       -1.36899
H         19.50679      -14.82620       -2.32656
H         14.94010      -12.16049       -0.61595
