160

C         -1.68691        0.24482        4.18484
C         -2.91374        0.89998        4.14479
F         -4.04195        0.17959        4.09128
C         -2.98882        2.28550        4.14416
C         -1.81342        3.03768        4.18212
C         -0.55794        2.40505        4.19966
C         -0.49155        0.97897        4.20134
C          0.75899        0.32487        4.18069
C          1.92495        1.07933        4.09802
C          1.83758        2.47425        4.11324
C          0.62803        3.15398        4.18138
C          3.17063        3.06506        3.95391
O          3.44086        4.25720        3.94672
C          4.12249        1.91553        3.77892
C          3.35576        0.65605        3.92253
C          3.60064       -0.41536        3.13331
C          3.18629       -0.40103        1.76670
N          2.80545       -0.37648        0.66978
C          3.70418       -1.68751        3.76748
N          3.77041       -2.71299        4.30607
C          5.42468        2.16922        3.56995
C          6.51473        1.19988        3.37859
C          6.83277        0.75217        2.08428
C          7.85087       -0.18530        1.88395
C          8.58849       -0.69274        2.96601
C          8.30996       -0.19246        4.25413
C          7.28198        0.74870        4.45001
C          9.50716       -1.87619        2.75826
C          8.87078       -3.25048        2.88821
C          7.79559       -3.42321        3.78577
C          7.11491       -4.63700        3.91192
C          7.51589       -5.73252        3.16406
C          8.57697       -5.60102        2.27479
C          9.22096       -4.36578        2.11373
C         10.84141       -1.65762        2.47311
C         11.84024       -2.75771        2.28243
C         12.56091       -2.85226        1.07919
C         13.49901       -3.87087        0.88454
C         13.72856       -4.80905        1.88821
C         13.02996       -4.72209        3.09091
C         12.10412       -3.69380        3.29359
C         11.35375       -0.25093        2.44936
C         11.89742        0.27673        3.62426
C         12.18416        1.64105        3.72245
C         11.93302        2.50864        2.64992
C         11.54413        1.94189        1.42360
C         11.25512        0.57176        1.32222
C         11.95235        3.97792        2.82439
C         12.29182        4.98049        1.91355
C         11.99544        6.26614        2.42794
C         11.47777        6.20857        3.70470
S         11.33915        4.66972        4.31337
C         11.16044        7.52114        4.13778
C         11.47963        8.40223        3.12973
C         12.03853        7.66355        1.99433
C         12.48021        8.15690        0.82101
C         12.47884        9.55213        0.55127
N         12.48157       10.69314        0.33651
C         12.96947        7.31098       -0.21033
N         13.35878        6.62227       -1.06009
C         11.14669        9.73143        3.47257
C         10.59411        9.82300        4.75588
S         10.49261        8.23845        5.48690
C         10.15434       11.05025        5.47431
C          9.10854       11.06292        6.40935
C          8.69933       12.26135        7.03321
C          9.32675       13.48526        6.74833
C         10.36852       13.47877        5.81702
C         10.77183       12.28326        5.19378
C          8.80539       14.77475        7.33215
C          7.53588       15.28694        6.72760
C          7.61268       16.00621        5.52369
C          6.45456       16.41690        4.86242
C          5.20600       16.11096        5.39732
C          5.11659       15.38326        6.58487
C          6.27686       14.96514        7.24652
C          9.48818       15.52940        8.25777
C          8.91191       16.82795        8.78302
C          8.12623       16.82467        9.94374
C          7.75208       18.02759       10.55995
C          8.16398       19.24988       10.03116
C          8.93522       19.27305        8.87328
C          9.29002       18.07268        8.24447
C         10.88643       15.15866        8.69978
C         11.87660       16.15061        8.69045
C         13.22265       15.85754        8.90811
C         13.64064       14.56340        9.20585
C         12.64851       13.57592        9.30577
C         11.28787       13.87489        9.08171
C         15.07625       14.20241        9.24709
C         16.14310       14.96271        9.55854
C         17.52089       14.50061        9.18671
O         17.86924       13.38689        8.85522
C         18.38022       15.70075        9.26175
C         19.75181       15.73831        9.06432
C         20.41984       16.95303        9.27359
C         19.67890       18.11424        9.64238
C         20.36130       19.31626        9.87616
C         21.74437       19.37041        9.74854
C         22.47563       18.24781        9.38681
C         21.81565       17.04106        9.14870
F         22.38141       20.52436        9.98600
C         18.28224       18.04329        9.80616
C         17.63201       16.82622        9.64297
C         16.26122       16.35852        9.99283
C         15.53930       16.96607       10.95899
C         14.91017       16.20573       11.98267
N         14.51023       15.59217       12.88423
C         15.39017       18.37924       11.00344
N         15.21780       19.52528       10.93767
H         -1.68356       -0.84177        4.17492
H         -3.95945        2.77062        4.10366
H         -1.88827        4.12398        4.17373
H          0.79568       -0.76200        4.18503
H          0.61606        4.24093        4.16898
H          5.75887        3.20730        3.51906
H          6.28112        1.11520        1.22066
H          8.06219       -0.54253        0.87950
H          8.84815       -0.57734        5.11283
H          7.07861        1.10558        5.46581
H          7.44207       -2.60907        4.40983
H          6.26963       -4.71092        4.59226
H          6.99516       -6.68021        3.26581
H          8.90170       -6.45772        1.69022
H         10.00736       -4.31133        1.36771
H         12.39215       -2.13794        0.27713
H         14.04955       -3.93267       -0.05150
H         14.45265       -5.60542        1.73517
H         13.20118       -5.45787        3.87243
H         11.56512       -3.64750        4.23678
H         12.04286       -0.36290        4.49150
H         12.55126        2.02015        4.67270
H         11.38707        2.56820        0.54811
H         10.89631        0.17028        0.37741
H         12.68495        4.75700        0.92871
H         11.27716       10.59997        2.84023
H          8.56702       10.15031        6.65056
H          7.86691       12.22776        7.73352
H         10.86870       14.40717        5.55267
H         11.58254       12.33967        4.47076
H          8.58113       16.22881        5.08260
H          6.52926       16.96421        3.92656
H          4.30322       16.43216        4.88376
H          4.13917       15.13230        6.98896
H          6.18859       14.37078        8.15125
H          7.82872       15.88472       10.39998
H          7.16030       18.01011       11.47194
H          7.89333       20.18030       10.52582
H          9.28167       20.22360        8.47362
H          9.92442       18.12057        7.36274
H         11.64382       17.18427        8.46337
H         13.91987       16.67470        8.77063
H         12.91465       12.54264        9.52184
H         10.55871       13.07250        9.16444
H         15.26647       13.19713        8.86328
H         20.28620       14.83025        8.79730
H         19.83452       20.21932       10.17390
H         23.55521       18.31727        9.29726
H         22.40336       16.16656        8.87600
H         17.75099       18.94129       10.10604
