97

C         -0.18773       -2.72570       -4.56899
C         -1.56070       -2.38828       -4.64075
F         -2.33113       -2.77866       -5.69417
C         -2.14986       -1.64266       -3.62209
C         -1.40773       -1.30298       -2.49093
C         -0.06621       -1.71587       -2.34693
C          0.59271       -2.37711       -3.41515
C          1.99870       -2.65361       -3.26701
C          2.66445       -2.39006       -2.00160
C          1.93500       -1.94643       -0.93825
C          0.60431       -1.51776       -1.11629
C          2.79259       -1.95754        0.27647
O          2.39778       -1.65903        1.39060
C          4.22356       -2.12662       -0.12614
C          4.15377       -2.45686       -1.62380
C          4.86173       -1.52266       -2.21718
C          4.55920       -0.12023       -1.81369
N          4.17306        0.89511       -1.39889
C          6.01231       -2.04695       -2.88950
N          6.91077       -2.55740       -3.41534
C          5.35429       -1.69591        0.67381
C          6.88279       -1.31303        0.29590
C          7.46787       -0.74647       -0.88827
C          8.88914       -0.85736       -1.01661
C          9.43005       -1.32867        0.09058
S          8.24668       -1.63161        1.14204
C         10.82690       -1.52023       -0.01717
C         11.21702       -1.19856       -1.26803
C         10.01036       -0.78765       -2.04026
C          9.96228       -0.69683       -3.39415
C         11.14294       -0.94593       -4.20223
N         12.06986       -1.14178       -4.87353
C          8.73552       -0.57588       -4.13187
N          7.79688       -0.48509       -4.80012
C         12.56679       -1.45371       -1.49431
C         13.15187       -1.98664       -0.33909
S         12.03359       -2.14507        0.93036
C         14.52963       -2.41727       -0.23707
C         15.41321       -2.33912       -1.29146
C         16.64104       -2.82173       -0.98665
C         16.71866       -3.28799        0.29098
Se        15.19908       -3.13238        1.28044
C         17.87919       -4.01401        0.73559
C         17.98404       -4.49977        2.01013
C         19.12211       -5.27768        2.13479
C         19.90612       -5.35657        1.01598
S         19.21786       -4.47749       -0.22971
C         21.14362       -6.07409        1.33325
C         21.08719       -6.42013        2.65031
C         19.81073       -5.86331        3.27495
C         19.43375       -5.37268        4.50700
C         20.26639       -4.98811        5.58465
N         20.72633       -4.58980        6.56635
C         18.12667       -4.90286        4.89312
N         17.12267       -4.49597        5.30156
C         22.24187       -7.08828        3.10668
C         23.35379       -7.05434        2.16916
S         22.68581       -6.44376        0.69204
C         24.89385       -7.06151        2.58862
C         26.13255       -7.52094        2.04358
C         27.52501       -7.34905        2.56864
O         27.81705       -6.81713        3.62679
C         28.53976       -7.81664        1.56767
C         29.95456       -7.86579        1.72463
C         30.81091       -8.19328        0.65138
C         30.24880       -8.35549       -0.64069
C         31.18917       -8.48389       -1.73388
C         32.58979       -8.59394       -1.50844
C         33.09202       -8.57739       -0.21340
C         32.21993       -8.33842        0.85328
F         33.46920       -8.75082       -2.54065
C         28.78110       -8.41434       -0.76659
C         27.89572       -8.21209        0.39331
C         26.37277       -8.35300        0.84627
C         25.47238       -9.37718        0.64437
C         24.55588       -9.74596        1.73301
N         23.85666       -9.98322        2.62931
C         25.42539      -10.36479       -0.36247
N         25.27813      -11.22978       -1.11000
H          0.22332       -3.28783       -5.40163
H         -3.19696       -1.35286       -3.68816
H         -1.89874       -0.74148       -1.70799
H          2.53701       -3.07131       -4.11689
H          0.07775       -1.05251       -0.30130
H          5.09127       -1.48421        1.70871
H          6.98849       -0.39343       -1.69571
H         13.09822       -1.33058       -2.42853
H         15.17518       -1.95889       -2.27099
H         17.45006       -2.88296       -1.69808
H         17.25408       -4.27327        2.77237
H         22.23690       -7.45076        4.11977
H         25.01782       -6.48217        3.49885
H         30.40673       -7.64149        2.68058
H         30.88128       -8.51320       -2.77080
H         34.16407       -8.72496       -0.04122
H         32.66444       -8.29141        1.84173
H         28.38340       -8.62469       -1.75039
