139

C          4.21158        3.12943       -9.27133
C          2.98086        3.49481       -9.80371
F          2.54132        2.88992      -10.91460
C          2.20843        4.48597       -9.21388
C          2.65404        5.10694       -8.04616
C          3.88869        4.75598       -7.47923
C          4.69625        3.76919       -8.12444
C          5.97919        3.47111       -7.63511
C          6.45111        4.16455       -6.53370
C          5.59790        5.03519       -5.83948
C          4.33527        5.36207       -6.29575
C          6.24183        5.48335       -4.58154
O          5.77151        6.22000       -3.74465
C          7.55119        4.74773       -4.53287
C          7.78114        4.25030       -5.89147
C          8.95059        4.30067       -6.57393
C         10.11993        4.89347       -6.00851
N         11.05137        5.43932       -5.58483
C          9.04695        3.93357       -7.94939
N          9.10189        3.60761       -9.05855
C          8.12559        4.48106       -3.35081
C          9.13707        3.49032       -3.15921
C          9.33751        2.28210       -3.79201
C         10.53204        1.56522       -3.39919
C         11.14043        0.39006       -3.92202
C         10.61813       -0.23464       -5.18344
C         10.49129       -1.57279       -5.54295
C          9.95288       -1.77789       -6.84837
C          9.60831       -0.59637       -7.46064
S         10.13936        0.73614       -6.53469
C          8.91596       -0.39472       -8.76981
Cl         9.74844       -3.34034       -7.51765
C         12.24334       -0.18982       -3.24727
C         12.74816        0.34815       -2.05263
C         12.15835        1.54644       -1.55510
C         11.08844        2.15847       -2.25714
S         10.25990        3.64520       -1.89553
C         12.63999        2.16225       -0.28155
C         12.86816        3.49696        0.03339
C         13.23724        3.71527        1.39317
C         13.38690        2.53753        2.08703
S         12.88356        1.20568        1.13843
C         13.84911        2.32716        3.49171
Cl        13.46589        5.28763        2.03189
C         13.83435       -0.48257       -1.55313
C         14.16451       -1.56014       -2.34808
S         13.15990       -1.57861       -3.71012
C         15.18875       -2.55493       -2.11499
C         15.94814       -3.21768       -3.04675
C         16.87569       -4.09066       -2.45159
C         17.62322       -4.67550       -3.51545
C         17.25491       -4.28512       -4.79815
S         15.96533       -3.12261       -4.86988
C         17.85269       -4.75250       -6.08304
F         18.60471       -5.51897       -3.35444
C         16.87069       -4.17412       -1.08868
S         15.64476       -3.06755       -0.53734
C         17.66636       -4.96964       -0.16308
C         18.63706       -5.90168       -0.45060
C         19.31229       -6.49547        0.68267
C         20.38316       -7.42998        0.74393
C         21.13444       -7.78878       -0.49632
C         21.63257       -9.00855       -0.93659
C         22.34080       -8.92957       -2.17194
C         22.31781       -7.66261       -2.70585
S         21.64539       -6.55075       -1.59750
C         22.80810       -7.20507       -4.03969
Cl        23.08131      -10.29714       -2.88772
C         20.77221       -7.97892        1.98387
C         20.21664       -7.50977        3.18292
C         19.16828       -6.54299        3.12987
C         18.72809       -6.05413        1.87546
S         17.47837       -4.90178        1.52916
C         18.50012       -6.07267        4.38820
C         18.00555       -4.82036        4.73662
C         17.37647       -4.77365        6.01825
C         17.42943       -5.98323        6.66929
S         18.11979       -7.17734        5.66189
C         16.92713       -6.35583        8.02738
Cl        16.64949       -3.34387        6.61801
C         20.93507       -8.08400        4.29547
C         21.79931       -9.11377        3.98385
S         21.92917       -9.23681        2.29859
C         22.61808       -9.92091        4.83143
C         22.29336      -10.20477        6.10314
C         23.41317      -10.42866        7.08099
O         24.50702      -10.90648        6.87444
C         22.93404       -9.79285        8.33087
C         23.69375       -9.46943        9.44382
C         23.11616       -8.63926       10.41440
C         21.79455       -8.12989       10.22287
C         21.26672       -7.22660       11.15466
C         22.01079       -6.86304       12.27041
C         23.27868       -7.38441       12.48978
C         23.83382       -8.26646       11.56109
F         21.49398       -5.99460       13.14877
C         21.03729       -8.51831        9.10447
C         21.60065       -9.38077        8.18191
C         21.10703       -9.92076        6.90641
C         19.83037      -10.31293        6.62462
C         19.53088      -11.02280        5.41478
N         19.24148      -11.61522        4.46306
C         18.76843      -10.10999        7.54128
N         17.90786       -9.91074        8.29632
H          4.78675        2.35866       -9.77738
H          1.26335        4.76910       -9.66650
H          2.03655        5.88055       -7.59375
H          6.59139        2.72782       -8.13927
H          3.72669        6.07760       -5.74989
H          7.74466        4.97951       -2.45888
H          8.65374        1.91928       -4.54607
H         10.77722       -2.39941       -4.90562
H          9.49394       -0.84005       -9.58566
H          8.76149        0.66277       -9.00389
H          7.92812       -0.87099       -8.75357
H         12.74131        4.31063       -0.66983
H         14.51557        3.13457        3.81578
H         14.41023        1.39211        3.59659
H         12.99490        2.29880        4.17504
H         14.37195       -0.28239       -0.63607
H         18.73394       -5.37647       -5.90241
H         18.16597       -3.90239       -6.69731
H         17.12800       -5.34808       -6.64765
H         18.89164       -6.18115       -1.45573
H         21.51098       -9.94002       -0.39912
H         23.83175       -7.54859       -4.21945
H         22.79833       -6.11500       -4.13962
H         22.16880       -7.61556       -4.83040
H         18.05826       -3.95118        4.09427
H         16.68506       -5.47382        8.62976
H         17.67736       -6.92548        8.58649
H         16.02013       -6.96301        7.94421
H         20.80348       -7.74297        5.31166
H         23.61492      -10.17452        4.46643
H         24.72360       -9.81326        9.51931
H         20.27958       -6.79091       11.02567
H         23.83130       -7.09354       13.37783
H         24.83459       -8.65525       11.73988
H         20.04164       -8.10790        8.95833
