129

C         -0.54897       -2.69931        1.88489
C         -1.85695       -2.55000        2.32868
F         -2.77902       -3.45162        1.96758
C         -2.22919       -1.46817        3.11502
C         -1.27060       -0.52699        3.49574
C          0.05716       -0.64273        3.05381
C          0.41408       -1.73593        2.20735
C          1.69887       -1.81002        1.64401
C          2.58939       -0.77289        1.86581
C          2.26785        0.22406        2.80121
C          1.02352        0.31337        3.40159
C          3.42099        1.13223        2.99222
O          3.48554        2.06594        3.76168
C          4.49304        0.61116        2.07554
C          3.84561       -0.35643        1.18708
C          4.01313       -0.46036       -0.15475
C          4.76233        0.50279       -0.89167
N          5.27390        1.32753       -1.52846
C          3.27167       -1.37321       -0.95866
N          2.67192       -2.12969       -1.60175
C          5.78055        0.90750        2.31182
C          6.96391        0.28251        1.70705
C          7.53482       -0.86028        2.28596
C          8.71180       -1.37016        1.74424
C          9.34760       -0.72142        0.66171
C          8.77397        0.38373        0.06407
C          7.58781        0.88801        0.60205
C         10.63602       -1.32833        0.42590
C         10.80917       -2.38865        1.33348
C          9.55212       -2.57267        2.20305
C          9.87364       -2.56124        3.72080
C         10.47259       -1.26954        4.27448
C          8.89000       -3.91220        1.75840
C          7.62176       -4.31183        2.50337
C         11.99674       -3.10172        1.37821
C         13.05771       -2.71208        0.54995
C         12.86802       -1.65598       -0.36792
C         11.65332       -0.96669       -0.44137
C         14.38832       -3.33321        0.63152
C         14.74523       -4.28646        1.50823
C         16.06768       -4.80531        1.55040
C         17.18302       -4.47568        0.78168
C         18.30516       -5.23096        1.15403
C         18.01557       -6.10549        2.17424
S         16.44990       -6.05035        2.71503
C         19.17430       -6.84616        2.47304
C         20.19402       -6.43894        1.63752
C         19.69959       -5.37035        0.76169
C         20.36045       -4.66815       -0.17543
C         21.73361       -4.90303       -0.44680
N         22.85472       -5.09782       -0.66859
C         19.72575       -3.64423       -0.94982
N         19.20849       -2.82280       -1.57609
C         21.36824       -7.18452        1.86085
C         21.18147       -8.13287        2.87128
S         19.57136       -8.05657        3.53547
C         22.09404       -9.11070        3.37234
C         22.89823       -8.76504        4.39645
C         23.87115       -9.68238        4.92727
C         24.05807      -11.02982        4.37015
C         23.33814      -11.54348        3.37391
S         22.06698      -10.67034        2.57028
C         25.11573      -11.61773        5.09067
C         25.57548      -10.73473        6.03805
C         26.63836      -11.24618        6.79947
C         26.95278      -12.52838        6.36804
S         25.93706      -13.07096        5.06882
C         24.78566       -9.52864        5.92985
C         24.94623       -8.35460        6.75422
C         26.08452       -7.64670        6.83013
C         26.25811       -6.48358        7.67380
C         25.53183       -5.35701        7.66489
C         25.66546       -4.37985        8.79474
O         26.58223       -4.26604        9.58010
C         24.39953       -3.61989        8.79897
C         24.02316       -2.64859        9.71014
C         22.74690       -2.08667        9.58082
C         21.85509       -2.57329        8.57727
C         20.56814       -2.02850        8.48629
C         20.18554       -0.99767        9.33705
C         21.05608       -0.49444       10.29406
C         22.33151       -1.04479       10.42435
F         18.95909       -0.47255        9.22111
C         22.27517       -3.56486        7.67046
C         23.57431       -4.04110        7.74323
C         24.38497       -4.92125        6.86255
C         24.27494       -4.97225        5.51319
C         25.34694       -5.43052        4.68965
N         26.22641       -5.74810        4.00369
C         23.15605       -4.44308        4.80724
N         22.22915       -4.04067        4.23502
H         -0.30980       -3.55070        1.25297
H         -3.26560       -1.35995        3.41934
H         -1.57946        0.31783        4.10856
H          1.94877       -2.63951        0.98852
H          0.80085        1.13538        4.07655
H          6.02648        1.62992        3.09049
H          7.10619       -1.30876        3.17745
H          9.24590        0.88183       -0.77642
H          7.16883        1.78970        0.16107
H         10.56112       -3.38371        3.95925
H          8.96041       -2.75122        4.29583
H         11.40279       -0.99655        3.76977
H         10.69548       -1.39650        5.33998
H          9.77079       -0.43426        4.19252
H          9.60905       -4.73573        1.87066
H          8.65049       -3.87232        0.68608
H          7.81513       -4.48935        3.56464
H          7.22470       -5.24316        2.08634
H          6.83964       -3.55586        2.40842
H         12.08547       -3.92901        2.07135
H         13.68001       -1.34157       -1.02283
H         11.53820       -0.14317       -1.13850
H         15.11298       -2.92938       -0.07099
H         14.03726       -4.68629        2.22600
H         17.15540       -3.72828        0.00075
H         22.30496       -7.08760        1.32366
H         22.84303       -7.77530        4.83375
H         23.52932      -12.55132        3.01950
H         27.15844      -10.73694        7.60011
H         27.72688      -13.18476        6.74153
H         24.07148       -8.07180        7.33642
H         26.96588       -7.95795        6.26891
H         27.05751       -6.58902        8.41036
H         24.71439       -2.33426       10.48764
H         19.85470       -2.37984        7.74559
H         20.73700        0.32377       10.93211
H         23.00324       -0.64130       11.17983
H         21.58088       -3.92239        6.91517
