108

C          7.85503        0.86987      -10.05149
C          7.08282        1.06535      -11.18915
F          7.43750        0.46707      -12.33363
C          5.96617        1.88989      -11.16529
C          5.59070        2.51395       -9.97363
C          6.35471        2.34514       -8.80819
C          7.52473        1.52804       -8.86098
C          8.37441        1.43427       -7.74858
C          8.09327        2.19639       -6.62740
C          6.87672        2.88970       -6.54071
C          6.00196        2.98499       -7.60868
C          6.72042        3.47625       -5.18811
O          5.76972        4.10445       -4.77434
C          7.95389        3.06505       -4.43193
C          8.89810        2.57645       -5.44450
C         10.22908        2.83180       -5.49683
C         10.84935        3.71026       -4.55923
N         11.33789        4.47624       -3.83743
C         11.06196        2.36899       -6.55547
N         11.72731        1.96120       -7.41463
C          7.92911        2.99953       -3.08781
C          8.88906        2.31486       -2.27011
C          9.28059        2.60542       -0.95361
C         10.26387        1.69872       -0.48251
C         10.55640        0.75165       -1.43293
S          9.64237        0.82811       -2.80696
C         11.58285       -0.08746       -0.96292
C         11.94427        0.30646        0.30348
C         11.10083        1.44723        0.69794
C         11.07127        2.10642        1.87894
C         11.92757        1.74600        2.95481
N         12.62167        1.44653        3.83381
C         10.16164        3.17314        2.11303
N          9.40642        4.03922        2.30679
C         13.00656       -0.50243        0.78920
C         13.44929       -1.42971       -0.17659
S         12.42587       -1.37047       -1.58446
C         14.57565       -2.41002       -0.10945
C         15.38765       -2.77945       -1.19678
O         15.20267       -2.18333       -2.41981
C         15.39669       -2.99088       -3.58352
C         16.47179       -3.65012       -0.98955
C         16.80168       -4.22062        0.26002
C         15.96313       -3.88413        1.33974
C         14.87057       -3.00421        1.13478
O         16.20810       -4.46630        2.55856
C         15.83954       -3.73365        3.72719
C         18.01826       -5.09886        0.34197
C         18.34861       -6.18767        1.16711
C         19.61928       -6.74566        0.83707
C         20.17615       -6.10325       -0.24348
S         19.34224       -4.78356       -0.77839
C         21.39441       -6.72025       -0.59186
C         21.64767       -7.73399        0.29805
C         20.53860       -7.81702        1.25914
C         20.41714       -8.67464        2.29006
C         21.41271       -9.66130        2.55665
N         22.24065      -10.45203        2.73798
C         19.30008       -8.62691        3.16966
N         18.39783       -8.59755        3.89451
C         22.90395       -8.33119        0.04298
C         23.50575       -7.80833       -1.10986
S         22.53794       -6.51772       -1.77794
C         24.75700       -8.10150       -1.73565
C         25.36173       -9.29742       -1.71970
C         26.84337       -9.33719       -1.97843
O         27.51472       -8.55057       -2.60529
C         27.33176      -10.49417       -1.19603
C         28.65268      -10.80463       -0.91640
C         28.90743      -11.83286        0.00293
C         27.81666      -12.50992        0.62775
C         28.08155      -13.49678        1.58525
C         29.39381      -13.82023        1.90998
C         30.46318      -13.18356        1.29557
C         30.22243      -12.19020        0.34452
F         29.62855      -14.76131        2.83321
C         26.48830      -12.18264        0.29626
C         26.24633      -11.19016       -0.63878
C         24.99460      -10.61161       -1.18848
C         23.83679      -11.28200       -1.40462
C         22.78237      -10.74458       -2.20334
N         21.91560      -10.33209       -2.85418
C         23.62402      -12.60865       -0.93573
N         23.45377      -13.68899       -0.54676
H          8.73208        0.23171      -10.12288
H          5.39848        2.04693      -12.07708
H          4.71472        3.15963       -9.97287
H          9.26673        0.81654       -7.80484
H          5.09617        3.57839       -7.51957
H          7.07828        3.43533       -2.56256
H          8.87880        3.45277       -0.40886
H         13.47412       -0.40719        1.76237
H         15.52432       -2.31340       -4.43327
H         14.51394       -3.61100       -3.76806
H         16.28675       -3.62369       -3.56511
H         17.12227       -3.85809       -1.82998
H         14.19224       -2.77749        1.94942
H         15.82617       -4.43279        4.56833
H         14.84080       -3.29289        3.69494
H         16.58371       -2.95801        3.93138
H         17.67971       -6.55030        1.93911
H         23.37370       -9.09450        0.64991
H         25.29451       -7.25551       -2.16930
H         29.45654      -10.23304       -1.37351
H         27.27769      -14.02252        2.09373
H         31.47774      -13.46015        1.56589
H         31.07156      -11.69455       -0.12166
H         25.67369      -12.69270        0.80350
