113

C          1.59923        3.86693       -3.69224
C          0.47553        4.25097       -4.41231
F         -0.23725        5.30735       -4.00090
C          0.06597        3.54437       -5.53508
C          0.80282        2.43906       -5.96491
C          1.93151        2.01354       -5.24740
C          2.32247        2.73297       -4.07797
C          3.38741        2.27760       -3.28457
C          4.00400        1.08151       -3.60868
C          3.67513        0.44170       -4.81382
C          2.65894        0.88241       -5.64456
C          4.55460       -0.72550       -5.02843
O          4.54835       -1.47006       -5.98565
C          5.49580       -0.73335       -3.85697
C          4.94535        0.20391       -2.87047
C          4.96837        0.07338       -1.51932
C          5.52901       -1.07104       -0.87814
N          5.95183       -2.00747       -0.33829
C          4.33285        0.99631       -0.64082
N          3.81697        1.75395        0.07216
C          6.67422       -1.36253       -3.98649
C          7.79187       -1.17208       -3.12064
C          8.18912       -0.04958       -2.38459
C          9.36197       -0.29654       -1.64749
C          9.88320       -1.53299       -1.94264
S          8.96024       -2.45979       -2.96288
C         11.14531       -1.64299       -1.32852
C         11.41155       -0.48542       -0.63243
C         10.26199        0.40798       -0.73425
C         10.04525        1.57288       -0.09352
C         11.00303        2.12788        0.79908
N         11.78898        2.58077        1.52393
C          8.81837        2.27414       -0.25037
N          7.79712        2.80316       -0.40864
C         12.71014       -0.49479       -0.08524
C         13.39027       -1.66738       -0.42461
S         12.36827       -2.75663       -1.32596
C         14.77830       -2.05538       -0.11689
C         15.50408       -2.88070       -0.99336
C         16.80724       -3.26496       -0.64622
C         17.42232       -2.82980        0.52476
C         16.71038       -1.96560        1.37860
C         15.39776       -1.59559        1.05151
C         18.70740       -3.44913        0.58848
C         18.82663       -4.27575       -0.52721
N         17.70179       -4.08643       -1.29807
C         17.45016       -4.68294       -2.59334
C         19.93104       -5.12021       -0.70545
C         20.95539       -5.13384        0.25882
C         20.87059       -4.25821        1.34710
C         19.76212       -3.41688        1.52206
C         22.06225       -6.10425        0.15978
C         22.83324       -6.67019        1.18120
C         23.72541       -7.63637        0.67078
C         23.60307       -7.75904       -0.69384
S         22.52932       -6.72304       -1.40164
C         24.49110       -8.74605       -1.15398
C         25.20539       -9.22468       -0.08331
C         24.73307       -8.58267        1.14532
C         25.10257       -8.84902        2.41380
C         26.05643       -9.86561        2.70100
N         26.83090      -10.70885        2.88517
C         24.53571       -8.15984        3.52066
N         24.07442       -7.59520        4.42316
C         26.20085      -10.12432       -0.50475
C         26.10635      -10.39670       -1.87535
S         24.86246       -9.42791       -2.61891
C         26.89047      -11.24506       -2.71199
C         27.51290      -12.35173       -2.28500
C         28.68695      -12.84536       -3.07874
O         28.91558      -12.68198       -4.25776
C         29.57726      -13.47354       -2.07967
C         30.88279      -13.88728       -2.28137
C         31.61637      -14.31268       -1.16533
C         31.02261      -14.26985        0.13291
C         31.78134      -14.64964        1.24621
C         33.08847      -15.09075        1.08052
C         33.66917      -15.16073       -0.17851
C         32.93808      -14.76580       -1.29998
F         33.79785      -15.45853        2.15512
C         29.68957      -13.85277        0.29499
C         28.95411      -13.49281       -0.82153
C         27.55013      -13.04811       -0.99529
C         26.48988      -13.44239       -0.25437
C         25.14312      -13.20743       -0.66329
N         24.03918      -13.03064       -0.98005
C         26.63413      -14.19214        0.94757
N         26.75872      -14.79499        1.93023
H          1.87249        4.44055       -2.81027
H         -0.83020        3.85380       -6.06357
H          0.46714        1.89404       -6.84501
H          3.67371        2.84440       -2.40286
H          2.41797        0.33267       -6.55053
H          6.82936       -2.00811       -4.85271
H          7.65300        0.88960       -2.40661
H         13.17348        0.30545        0.47896
H         15.06877       -3.23904       -1.92075
H         17.16015       -1.61402        2.30241
H         14.86112       -0.95531        1.74798
H         18.34059       -5.19410       -2.96246
H         17.18583       -3.88593       -3.29410
H         16.62742       -5.39508       -2.49160
H         19.95749       -5.78974       -1.55814
H         21.65720       -4.22612        2.09740
H         19.70357       -2.76978        2.39242
H         22.70214       -6.41028        2.22449
H         26.95705      -10.56145        0.13328
H         27.07652      -10.89616       -3.72911
H         31.31821      -13.85305       -3.27637
H         31.36868      -14.61444        2.25118
H         34.68871      -15.51958       -0.27842
H         33.40941      -14.81925       -2.27955
H         29.26445      -13.80335        1.29391
