110

C          0.72556        2.54489       -1.76475
C         -0.41933        3.33129       -1.76975
F         -1.57943        2.79826       -2.17406
C         -0.37550        4.66548       -1.38839
C          0.83500        5.23005       -0.98172
C          2.01473        4.46941       -0.99268
C          1.95679        3.10429       -1.40405
C          3.13190        2.34344       -1.51371
C          4.35597        2.95956       -1.31025
C          4.38914        4.27511       -0.82180
C          3.24760        5.03933       -0.64422
C          5.78386        4.69920       -0.58319
O          6.14641        5.76759       -0.13782
C          6.63368        3.51551       -0.95193
C          5.74949        2.56484       -1.64543
C          6.07655        1.76218       -2.68931
C          7.35263        1.83644       -3.32183
N          8.37040        1.91472       -3.87289
C          5.15191        0.87634       -3.31273
N          4.40390        0.14158       -3.80945
C          7.88452        3.43790       -0.46569
C          8.68666        2.25466       -0.47178
C          8.30905        0.91021       -0.40046
C          9.42012        0.04863       -0.47703
C         10.60491        0.74611       -0.47202
S         10.43031        2.39894       -0.49022
C         11.67069       -0.17871       -0.39103
C         11.15419       -1.45718       -0.36234
C          9.69548       -1.38833       -0.47536
C          8.80740       -2.39250       -0.60772
C          9.21808       -3.75299       -0.62275
N          9.55185       -4.86423       -0.63474
C          7.41687       -2.13000       -0.78302
N          6.30178       -1.86403       -0.93152
C         12.16774       -2.42670       -0.19044
C         13.42883       -1.83051       -0.08052
S         13.32367       -0.09320       -0.24857
C         14.70428       -2.43834        0.15810
C         15.42842       -2.84109       -0.90383
C         16.71813       -3.46127       -0.74342
C         17.32730       -3.70022        0.57202
C         16.75777       -3.36697        1.72947
S         15.18941       -2.61003        1.83901
C         18.57566       -4.31502        0.33075
C         18.75835       -4.46680       -1.02277
C         19.98620       -5.05552       -1.36348
C         20.70348       -5.34075       -0.20984
S         19.85935       -4.87941        1.23883
C         17.59235       -3.92894       -1.67921
C         17.41270       -3.85832       -3.10349
C         17.36398       -4.93666       -3.89929
C         17.19302       -4.79640       -5.30414
C         17.58969       -3.75602       -6.14813
C         17.26509       -4.03163       -7.48773
C         16.61848       -5.24069       -7.61727
S         16.40486       -6.07020       -6.19599
C         16.37012       -5.47896       -8.98500
C         16.88500       -4.43093       -9.71209
C         17.43275       -3.42591       -8.80413
C         17.93099       -2.21219       -9.11125
C         17.95503       -1.74788      -10.45513
N         17.94708       -1.40744      -11.56530
C         18.42298       -1.32945       -8.11248
N         18.82956       -0.61515       -7.29220
C         16.80703       -4.67428      -11.09472
C         16.11139       -5.85452      -11.37183
S         15.68719       -6.68772       -9.89527
C         15.79644       -6.46885      -12.61964
C         15.59952       -5.80543      -13.76809
C         15.71946       -6.58247      -15.04890
O         15.61989       -7.78050      -15.20840
C         16.08608       -5.58658      -16.07466
C         16.42642       -5.84320      -17.39275
C         16.81069       -4.76108      -18.19650
C         16.90568       -3.45575      -17.62758
C         17.31036       -2.38449      -18.43351
C         17.58071       -2.58971      -19.78103
C         17.47368       -3.85091      -20.35099
C         17.10086       -4.93802      -19.55877
F         17.93870       -1.54933      -20.54452
C         16.57046       -3.24061      -16.27847
C         16.10234       -4.29934      -15.51632
C         15.54699       -4.38637      -14.14047
C         14.85115       -3.40089      -13.52008
C         14.04782       -3.64097      -12.36562
N         13.38146       -3.81001      -11.43051
C         14.78228       -2.07011      -14.02484
N         14.73676       -0.98584      -14.43396
H          0.64613        1.51023       -2.08883
H         -1.28241        5.26096       -1.42176
H          0.85420        6.27901       -0.69248
H          3.06028        1.30366       -1.81934
H          3.32803        6.06744       -0.30123
H          8.30608        4.31318        0.03160
H          7.27844        0.59753       -0.30046
H         12.02742       -3.49858       -0.10678
H         15.05543       -2.70810       -1.91520
H         17.26678       -3.56409        2.66782
H         20.34461       -5.26033       -2.36430
H         21.68365       -5.79248       -0.13397
H         17.29182       -2.85297       -3.50019
H         17.43679       -5.93793       -3.47850
H         18.11303       -2.88033       -5.78394
H         17.22911       -4.04516      -11.86668
H         15.81667       -7.55998      -12.64297
H         16.38359       -6.85815      -17.77904
H         17.39958       -1.37744      -18.03420
H         17.67793       -3.97905      -21.40938
H         17.02265       -5.92092      -20.01950
H         16.67154       -2.24196      -15.86246
