106

C          6.25874        3.31128        8.00637
C          5.32276        3.62734        8.98371
F          5.70841        3.69526       10.26445
C          4.00160        3.89531        8.65265
C          3.59443        3.82221        7.31930
C          4.51754        3.51413        6.30729
C          5.88133        3.27901        6.65808
C          6.84619        3.06998        5.65735
C          6.46608        3.15071        4.32705
C          5.10561        3.26842        4.00468
C          4.12357        3.45539        4.96230
C          4.91661        3.16455        2.54137
O          3.86282        3.20251        1.94270
C          6.29210        2.93352        1.97490
C          7.23207        3.24395        3.05984
C          8.41588        3.89428        2.93752
C          8.85202        4.41089        1.68166
N          9.18037        4.87658        0.66965
C          9.23020        4.23160        4.05570
N          9.89152        4.48190        4.97618
C          6.40701        2.34343        0.77343
C          7.59551        1.75943        0.22805
C          7.95419        1.64574       -1.12386
C          9.17153        0.94752       -1.29122
C          9.70457        0.58783       -0.07863
S          8.75458        0.92149        1.23538
C         10.94377       -0.04574       -0.28699
C         11.19249       -0.11666       -1.63558
C         10.07154        0.49320       -2.36018
C          9.89248        0.57663       -3.68938
C         10.84751        0.05426       -4.60386
N         11.63263       -0.38021       -5.33976
C          8.72739        1.16285       -4.24666
N          7.76459        1.63425       -4.69817
C         12.42508       -0.75870       -1.90113
C         13.07631       -1.11806       -0.71669
S         12.12876       -0.67089        0.68038
C         14.36717       -1.77195       -0.58665
C         15.19596       -2.24006       -1.61266
C         16.39154       -2.79790       -1.09906
C         16.42512       -2.72761        0.27250
S         15.08737       -2.05681        0.97102
C         17.64161       -3.26245        0.73440
C         18.38117       -3.69335       -0.33952
C         17.63625       -3.41133       -1.57140
C         18.02021       -3.63130       -2.84322
C         19.28490       -4.20099       -3.14964
N         20.32380       -4.65802       -3.39175
C         17.18918       -3.28462       -3.94236
N         16.50438       -2.99606       -4.83338
C         19.61994       -4.23362        0.07807
C         19.76920       -4.18042        1.47065
S         18.39021       -3.40483        2.20104
C         20.93450       -4.48558        2.24030
C         20.99067       -4.97448        3.49159
C         22.21431       -4.91016        4.26314
C         22.00400       -4.97791        5.58343
C         20.63104       -5.26058        5.95542
S         19.68592       -5.59791        4.48364
C         20.01595       -4.72394        7.02979
C         18.94498       -5.41781        7.72202
C         17.90420       -4.65101        8.05826
C         18.01335       -3.29585        7.57107
S         19.64963       -2.96769        7.02890
C         17.00414       -2.41516        7.46011
C         15.61499       -2.70956        7.78480
C         14.84979       -3.64744        7.20269
C         13.58443       -4.11326        7.85413
O         12.92115       -3.54828        8.69612
C         13.35161       -5.47433        7.32112
C         14.34233       -5.81144        6.38521
C         14.41824       -7.11428        5.91023
C         13.40676       -8.03166        6.27152
C         12.35114       -7.63686        7.13177
C         12.34714       -6.34976        7.69268
C         11.22953       -8.48806        7.42157
N         10.26271       -9.08747        7.64656
C         13.50174       -9.44106        5.81081
O         13.17270      -10.37510        6.51956
O         14.00321       -9.59788        4.57142
C         15.10196       -4.57091        6.09028
C         15.54591       -4.21884        4.85842
C         15.76529       -2.84349        4.54467
N         15.85416       -1.70935        4.32073
C         15.57623       -5.14696        3.77684
N         15.54387       -5.95820        2.94686
H          7.28495        3.12564        8.31278
H          3.29804        4.16463        9.43427
H          2.55555        4.03629        7.07557
H          7.88043        2.89661        5.94235
H          3.08774        3.58653        4.66132
H          5.50759        2.22873        0.16667
H          7.34328        2.06419       -1.91680
H         12.84113       -0.95084       -2.88050
H         14.93298       -2.15997       -2.66026
H         20.39984       -4.61989       -0.56735
H         21.86981       -4.17771        1.77542
H         23.18064       -4.70747        3.82230
H         22.77990       -4.86369        6.32871
H         19.02937       -6.46705        7.97166
H         17.05234       -5.01434        8.61396
H         17.19386       -1.40662        7.09142
H         15.22135       -2.14492        8.63094
H         15.25477       -7.43261        5.29256
H         11.57501       -6.03195        8.39103
H         14.14160       -8.80450        4.02021
