109

C          0.12764       -1.48362       -4.44009
C         -1.15598       -1.04511       -4.73364
F         -2.06262       -1.92254       -5.18293
C         -1.51336        0.28401       -4.55778
C         -0.57595        1.19240       -4.05593
C          0.72688        0.77373       -3.72583
C          1.08276       -0.58569       -3.94423
C          2.37124       -1.04346       -3.62144
C          3.29991       -0.18383       -3.04325
C          2.91279        1.13622       -2.78628
C          1.66637        1.64402       -3.14334
C          3.94228        1.82611       -1.98244
O          3.89214        2.97607       -1.60293
C          5.04259        0.81901       -1.74943
C          4.61429       -0.44499       -2.37452
C          5.07746       -1.69888       -2.17507
C          4.89405       -2.73671       -3.12880
N          4.76894       -3.57075       -3.93276
C          5.60187       -2.11951       -0.92501
N          5.90129       -2.57582        0.10279
C          6.22353        1.26091       -1.27800
C          7.50875        0.53306       -1.21489
C          8.00753       -0.12813       -0.06375
O          7.12146        0.04686        0.97813
C          7.38608       -0.39771        2.29270
C          9.25508       -0.86657       -0.05950
O          9.56861       -1.47961        1.13830
C         10.88528       -1.28195        1.65973
C         10.07897       -1.03349       -1.23694
C          9.66075       -0.23666       -2.36129
C          8.36468        0.55471       -2.34043
N          8.14136        1.24069       -3.47594
S          9.44511        0.98993       -4.45545
N         10.30129       -0.08109       -3.53671
C         11.31716       -1.87272       -1.38027
C         12.45596       -1.65443       -2.17976
C         13.52484       -2.49276       -1.75816
C         13.11570       -3.34322       -0.79566
S         11.46757       -3.42919       -0.53928
C         14.20125       -3.92485       -0.22476
C         15.31093       -3.54649       -0.89753
N         14.85667       -2.76113       -1.92639
C         15.61209       -2.39406       -3.09453
C         16.47866       -4.09418       -0.29805
C         16.15745       -4.84667        0.84374
S         14.40904       -4.93726        1.09020
C         17.11421       -5.52776        1.77126
C         18.28802       -6.22897        1.34303
O         18.46101       -6.30359       -0.03051
C         18.69297       -7.59788       -0.58148
C         19.32798       -6.69631        2.23585
O         20.48061       -7.15068        1.60668
C         21.00507       -8.41754        2.01478
C         19.28387       -6.50668        3.65063
C         18.07440       -5.92983        4.13955
C         16.98419       -5.41426        3.19211
N         15.97524       -4.84075        3.87423
S         16.26913       -5.03061        5.48386
N         17.75449       -5.75349        5.43682
C         20.38110       -6.86709        4.57472
C         20.90199       -6.39498        5.71490
C         22.00363       -7.22323        6.31886
O         22.66628       -8.09297        5.78953
C         22.11947       -6.78095        7.71015
C         23.01942       -7.27276        8.63619
C         22.99491       -6.72170        9.91558
C         21.99169       -5.76425       10.25622
C         21.97316       -5.24746       11.55772
C         22.95810       -5.61560       12.47009
C         23.95969       -6.51484       12.12942
C         23.96772       -7.08429       10.85827
F         22.95401       -5.07243       13.69418
C         21.07643       -5.30814        9.28184
C         21.19713       -5.75711        7.97725
C         20.62984       -5.32315        6.66654
C         20.31371       -4.02791        6.37019
C         20.30984       -3.57576        5.02148
N         20.38556       -3.18425        3.93274
C         20.13384       -3.02956        7.36142
N         19.96795       -2.21218        8.17322
H          0.36011       -2.53573       -4.58284
H         -2.52356        0.59964       -4.79857
H         -0.88013        2.22639       -3.90563
H          2.57805       -2.09699       -3.77539
H          1.41506        2.67604       -2.91283
H          6.30866        2.29828       -0.95083
H          7.39536       -1.48814        2.36152
H          6.55565       -0.04381        2.91520
H          8.29726        0.05679        2.68677
H         10.82492       -0.74033        2.60567
H         11.56398       -0.73763        0.99670
H         11.30550       -2.26408        1.90103
H         12.56722       -0.85779       -2.90363
H         16.61355       -2.82792       -3.04227
H         15.67041       -1.30604       -3.16067
H         15.09419       -2.79971       -3.97033
H         17.49104       -3.92694       -0.64477
H         19.11702       -8.33242        0.10418
H         19.38308       -7.47514       -1.42285
H         17.75503       -8.00581       -0.96923
H         21.96644       -8.25285        2.51461
H         21.21046       -9.02295        1.12772
H         20.32487       -8.99506        2.65211
H         20.87297       -7.77776        4.25128
H         23.74184       -8.03039        8.34494
H         21.22123       -4.52799       11.86954
H         24.73122       -6.76187       12.85165
H         24.75727       -7.78787       10.59994
H         20.32497       -4.57414        9.56058
