108

C          1.86554        4.93487       -0.06888
C          0.99840        5.93770        0.34248
F         -0.31602        5.68479        0.40608
C          1.47136        7.19898        0.67527
C          2.84868        7.44641        0.65947
C          3.75938        6.44105        0.27843
C          3.24093        5.18001       -0.14769
C          4.10217        4.19249       -0.65985
C          5.46091        4.44007       -0.70934
C          5.98224        5.60770       -0.13335
C          5.15612        6.63170        0.32308
C          7.45703        5.49377       -0.02675
O          8.22431        6.28847        0.46405
C          7.79006        4.10562       -0.56715
C          6.59418        3.68244       -1.29390
C          6.55834        3.13997       -2.53580
C          7.74251        2.94106       -3.30397
N          8.68203        2.84637       -3.97838
C          5.33725        2.94593       -3.24683
N          4.33548        2.79119       -3.81161
C          8.87849        3.43749       -0.14469
C          9.17315        1.98112       -0.23293
C          8.70932        1.02700        0.69119
O          7.95145        1.40059        1.78460
C          8.58041        2.23935        2.75767
C          8.91697       -0.38450        0.45853
O          8.27503       -1.32315        1.24271
C          6.86092       -1.14390        1.37770
C          9.81560       -0.87297       -0.54392
C         10.30916        0.13413       -1.40339
C          9.97904        1.50712       -1.27018
C         10.37051       -2.30878       -0.64256
C         10.91288       -2.91585       -1.79909
O         10.54462       -2.40181       -3.03361
C         10.21760       -3.41225       -4.00606
C         11.84875       -4.03378       -1.73644
O         12.75633       -4.16740       -2.76826
C         13.36059       -2.93576       -3.19010
C         11.91202       -4.91879       -0.63547
C         11.20677       -4.37398        0.47286
C         10.54381       -3.10475        0.49335
C         12.60078       -6.33590       -0.52289
C         13.31263       -7.09820       -1.51307
O         13.50589       -6.51939       -2.74901
C         14.76978       -6.73255       -3.38147
C         13.76196       -8.47493       -1.28795
O         14.22528       -9.14637       -2.40713
C         15.28145      -10.09687       -2.29090
C         13.58609       -9.10223       -0.03641
C         12.99694       -8.33540        0.95726
C         12.48970       -7.03958        0.70652
C         13.99604      -10.49394        0.27262
C         13.25759      -11.61555        0.15343
C         13.95862      -12.86776       -0.30208
O         15.12366      -13.16627       -0.14090
C         12.96898      -13.60550       -1.11888
C         13.19415      -14.72752       -1.90323
C         12.11476      -15.28025       -2.61726
C         10.83678      -14.66330       -2.54077
C          9.75235      -15.22903       -3.21810
C          9.92206      -16.40880       -3.97188
C         11.16278      -17.00231       -4.07884
C         12.26702      -16.43563       -3.41196
F          8.87051      -16.93902       -4.58170
C         10.65961      -13.49236       -1.77412
C         11.71825      -12.97192       -1.04295
C         11.82281      -11.84230       -0.08859
C         10.82172      -11.42146        0.72218
C         11.05658      -10.73928        1.95611
N         11.22055      -10.28875        3.00028
C          9.43736      -11.68920        0.47426
N          8.34033      -11.94759        0.25101
H          1.44859        3.96472       -0.32961
H          0.76561        7.97548        0.95407
H          3.20040        8.43844        0.93858
H          3.69306        3.25122       -1.01495
H          5.58786        7.54840        0.71926
H          9.60744        3.98368        0.45593
H          7.77943        2.66520        3.37383
H          9.13195        3.08155        2.34068
H          9.24174        1.66793        3.41760
H          6.33673       -1.85232        0.72876
H          6.47552       -0.14981        1.13385
H          6.59899       -1.36539        2.41681
H         10.99602       -0.12310       -2.20911
H         10.39658        2.20687       -1.99357
H          9.13842       -3.40462       -4.18673
H         10.49435       -4.43935       -3.74097
H         10.72364       -3.15727       -4.94262
H         13.14641       -2.07322       -2.54675
H         13.03797       -2.71366       -4.21236
H         14.44649       -3.06472       -3.20115
H         11.16761       -4.88850        1.42743
H         10.16950       -2.76747        1.45833
H         15.06494       -5.80840       -3.88821
H         14.66411       -7.50014       -4.15604
H         15.57809       -6.99226       -2.68671
H         16.03421       -9.81814       -1.54605
H         15.78877      -10.16663       -3.25870
H         14.87360      -11.09173       -2.10511
H         12.89531       -8.72659        1.96560
H         11.97428       -6.61346        1.56090
H         15.07555      -10.60264        0.38033
H         14.19226      -15.17125       -1.94971
H          8.75597      -14.79730       -3.16499
H         11.27238      -17.89243       -4.66444
H         13.23036      -16.92748       -3.49995
H          9.67574      -13.02484       -1.76791
