105

C          4.60680        1.92549        9.69398
C          4.48797        1.30219       10.92940
F          4.92936        1.93079       12.02667
C          3.94131        0.03146       11.04072
C          3.49308       -0.63256        9.89565
C          3.61499       -0.03796        8.62786
C          4.19405        1.26280        8.53142
C          4.41577        1.84736        7.27567
C          4.13831        1.11163        6.12961
C          3.50602       -0.13021        6.23450
C          3.22502       -0.71695        7.45905
C          3.35196       -0.72953        4.89734
O          2.77115       -1.76025        4.62818
C          4.08640        0.17369        3.95104
C          4.60091        1.33271        4.71920
C          5.89003        1.74903        4.65870
C          6.95083        0.81210        4.84779
N          7.75966        0.01930        5.10101
C          6.17590        3.13903        4.76524
N          6.35496        4.28074        4.87477
C          4.15763       -0.13301        2.64267
C          4.96959        0.62848        1.66351
N          6.06478        1.27196        1.98266
C          6.53588        1.72226        0.79878
C          5.66051        1.33234       -0.27220
C          6.22155        1.85896       -1.54793
O          5.78131        1.76870       -2.67202
C          7.48042        2.51334       -1.10062
C          7.58806        2.37949        0.32796
N          8.73942        2.94264        0.77223
C          9.28315        3.38635       -0.32729
C          8.53228        3.16309       -1.58381
C          4.64654        0.60901        0.19866
C          3.54797       -0.00750       -0.47639
C          3.71634       -0.88912       -1.47694
C          2.66257       -1.53618       -2.29238
C          2.83730       -2.81794       -2.84688
C          1.90927       -3.37373       -3.80154
N          2.22056       -4.55747       -4.37027
C          3.29467       -5.27038       -3.93592
C          4.11503       -4.77827       -2.96029
N          3.92003       -3.53478       -2.44811
C          5.17106       -5.55687       -2.38638
N          6.00231       -6.23052       -1.93587
C          3.43179       -6.58688       -4.49015
N          3.51154       -7.66180       -4.92219
C          0.68508       -2.74333       -4.16416
C          0.43360       -1.48392       -3.52847
C          1.46114       -0.85176       -2.61958
N          1.10787        0.38395       -2.22165
S         -0.38315        0.70334       -2.84677
N         -0.66489       -0.71472       -3.63483
C         -0.20992       -3.25474       -5.26119
S         -1.04877       -2.09742       -6.25704
C         -1.35895       -3.21100       -7.52073
C         -0.66381       -4.37622       -7.25467
C         -0.42214       -4.51630       -5.82506
C         -0.15292       -5.76926       -5.22526
C         -0.26607       -6.14209       -3.77333
F         -0.66898       -5.12094       -2.96695
F         -1.17782       -7.13871       -3.58082
F          0.88862       -6.60997       -3.22221
C          0.11147       -6.77284       -6.20628
C          0.03443       -6.57817       -7.61933
C         -0.42392       -5.38857       -8.20459
O         -0.47715       -5.14291       -9.54554
C         -0.88668       -6.23936      -10.35410
C         -2.20829       -2.79360       -8.58937
C         -2.99555       -3.67665       -9.22649
C         -3.80181       -3.30185      -10.33083
C         -4.46206       -2.10219      -10.57926
C         -5.14517       -2.14320      -11.80556
C         -4.98125       -3.34852      -12.44903
S         -4.06124       -4.45117      -11.62008
C         -5.68744       -3.31081      -13.66910
C         -6.30534       -2.08262      -13.78600
C         -5.99449       -1.27633      -12.60483
C         -6.39502       -0.01896      -12.31580
C         -5.99900        0.64464      -11.11670
N         -5.67342        1.18072      -10.14088
C         -7.23093        0.70902      -13.19345
N         -7.91172        1.30945      -13.91392
C         -7.04192       -1.98347      -14.98480
C         -6.93278       -3.15800      -15.71996
S         -5.94459       -4.34975      -14.94194
H          5.06022        2.91249        9.65423
H          3.87930       -0.43910       12.01718
H          3.07977       -1.63385       10.00079
H          4.88342        2.82705        7.21387
H          2.79075       -1.71265        7.49776
H          3.66614       -1.02525        2.26249
H         10.25483        3.90168       -0.36856
H          8.80356        3.44486       -2.58113
H          2.55863        0.29367       -0.14193
H          4.72994       -1.18581       -1.75291
H          0.41160       -7.76693       -5.86228
H          0.33792       -7.40762       -8.25555
H         -1.80208       -6.70181       -9.96915
H         -0.08495       -6.97515      -10.45169
H         -1.10234       -5.84923      -11.35392
H         -2.22753       -1.73772       -8.84562
H         -2.99778       -4.72633       -8.94456
H         -4.43479       -1.27442       -9.88245
H         -7.62583       -1.13760      -15.32517
H         -7.38369       -3.38465      -16.67678
