103

C          5.50544       -7.74792        8.53978
C          4.41963       -7.74887        9.40634
F          4.30609       -8.72663       10.31440
C          3.43752       -6.77119        9.32725
C          3.54081       -5.76331        8.36674
C          4.60984       -5.75318        7.45668
C          5.60522       -6.77069        7.54212
C          6.63304       -6.84478        6.58636
C          6.61258       -5.98368        5.49940
C          5.66472       -4.94647        5.47132
C          4.68145       -4.79554        6.43629
C          5.79222       -4.15546        4.23178
O          5.16010       -3.16218        3.93982
C          6.87127       -4.82318        3.43826
C          7.24823       -6.05011        4.15273
C          7.64665       -7.21865        3.59183
C          7.38367       -7.49944        2.22079
N          7.06359       -7.77514        1.13682
C          8.17558       -8.30206        4.34305
N          8.64919       -9.16533        4.95922
C          7.43073       -4.19618        2.39050
C          8.64727       -4.59069        1.69226
C          8.59279       -4.88250        0.37924
C          9.76678       -5.25209       -0.36625
C         11.10817       -5.27678        0.22725
C         11.36033       -5.01664        1.50843
S         10.11687       -4.63577        2.66551
C         11.99771       -5.64903       -0.80288
C         11.29132       -5.87295       -1.95961
C         12.09414       -6.25444       -3.04522
C         13.42261       -6.30877       -2.64579
S         13.64135       -5.88994       -0.97246
C          9.90335       -5.61368       -1.67362
C          8.84988       -5.74443       -2.64006
C          8.04444       -4.73163       -2.99051
C          6.99624       -4.91475       -3.92528
S          6.49800       -3.59998       -4.92534
C          5.27798       -4.51125       -5.73746
C          5.25819       -5.79039       -5.24821
C          6.20352       -5.97131       -4.23957
C          6.08029       -7.29225       -3.72178
C          5.09565       -8.05362       -4.37155
C          4.72874       -9.43153       -4.07630
O          5.21127      -10.12206       -3.18688
O          3.77137       -9.85630       -4.94728
C          3.34886      -11.20195       -4.78856
S          4.25503       -7.21402       -5.66868
C          4.39579       -3.95183       -6.73241
C          3.08357       -4.33102       -7.03372
C          2.51028       -3.48070       -7.99924
C          3.39464       -2.50602       -8.39351
S          4.89883       -2.59938       -7.70926
C          2.73331       -1.61173       -9.25451
C          1.42988       -2.02383       -9.41099
C          1.22392       -3.26555       -8.65984
C          0.11816       -4.03513       -8.60136
C          0.07994       -5.23609       -7.83486
N          0.04887       -6.21214       -7.20934
C         -1.05788       -3.69649       -9.31755
N         -2.02360       -3.41477       -9.90611
C          0.69354       -1.10352      -10.18615
C          1.48450       -0.01334      -10.56035
S          3.12269       -0.18848      -10.00847
C          1.08120        1.16334      -11.29526
C          1.61204        2.44989      -11.19903
C          0.94952        3.34254      -12.07203
C         -0.04235        2.70463      -12.78907
S         -0.20805        1.08706      -12.45820
C         -0.67336        3.63728      -13.64468
C         -0.08566        4.87778      -13.47902
C          1.04151        4.83297      -12.43435
C          0.73175        5.72560      -11.23119
C          2.39813        5.17759      -13.05145
C         -0.68035        5.85061      -14.31463
C         -1.69648        5.28502      -15.07177
S         -1.90821        3.59435      -14.75752
H          6.23795       -8.54643        8.62664
H          2.58973       -6.80867       10.00411
H          2.75631       -5.01123        8.30893
H          7.36912       -7.63664        6.67749
H          3.94258       -4.00431        6.33983
H          6.99485       -3.25749        2.04085
H          7.64558       -4.85984       -0.15317
H         12.37717       -5.05110        1.88549
H         11.75511       -6.47485       -4.04954
H         14.28453       -6.57092       -3.24454
H          8.76212       -6.72973       -3.08921
H          8.19989       -3.73890       -2.57142
H          6.66570       -7.69339       -2.90018
H          2.55970      -11.38479       -5.52278
H          2.94012      -11.35728       -3.78710
H          4.18102      -11.88054       -4.99116
H          2.56707       -5.13799       -6.53069
H         -0.35935       -1.17162      -10.43169
H          2.42041        2.72453      -10.53161
H         -0.23943        5.48041      -10.78424
H          0.70150        6.78233      -11.52033
H          1.48999        5.61107      -10.44805
H          2.62793        4.53382      -13.90925
H          3.20719        5.05173      -12.32277
H          2.41988        6.21461      -13.40512
H         -0.39968        6.89456      -14.37218
H         -2.33320        5.77058      -15.79828
