114

C         19.02484      -10.85039       -2.32791
C         19.68093      -11.87988       -1.66293
F         20.89562      -12.26026       -2.07982
C         19.09710      -12.51902       -0.57816
C         17.83123      -12.12142       -0.14048
C         17.14478      -11.07920       -0.79423
C         17.75202      -10.43780       -1.91098
C         17.08249       -9.40084       -2.59177
C         15.81616       -9.01014       -2.18278
C         15.25773       -9.63052       -1.05396
C         15.88218      -10.65660       -0.35752
C         13.98188       -8.98467       -0.69702
O         13.25072       -9.29628        0.21634
C         13.83699       -7.82990       -1.64766
C         14.83548       -8.01429       -2.70986
C         14.75882       -7.59063       -3.99507
C         13.60647       -6.94343       -4.53024
N         12.66980       -6.47395       -5.03019
C         15.76650       -7.87136       -4.96129
N         16.59223       -8.08832       -5.74741
C         13.07113       -6.80154       -1.25299
C         13.00311       -5.45408       -1.78528
C         11.85384       -5.02971       -2.34158
C         11.68576       -3.67037       -2.77244
C         12.62265       -2.60654       -2.39323
C         13.81606       -2.83434       -1.84444
S         14.42790       -4.44603       -1.54946
C         12.04804       -1.39522       -2.83332
C         10.87752       -1.66201       -3.50450
C         10.27255       -0.52207       -4.05387
C         11.02415        0.60218       -3.74139
S         12.43297        0.22941       -2.79239
C         10.66185       -3.08716       -3.45548
C          9.54362       -3.78101       -4.03832
C          8.26740       -3.55426       -3.69314
C          7.12721       -4.23102       -4.28667
C          6.17267       -3.48592       -4.87678
C          4.99840       -4.07725       -5.45964
C          4.71824       -5.51451       -5.36401
C          5.54136       -6.40605       -4.81446
S          7.08547       -5.98321       -4.13194
C          3.45795       -5.71670       -5.96065
C          2.96444       -4.51633       -6.41468
C          1.70151       -4.63084       -7.01747
C          1.28979       -5.95775       -7.00043
S          2.44603       -7.01311       -6.24880
C          3.94584       -3.49989       -6.11107
C          3.78708       -2.09551       -6.40412
C          4.64116       -1.38288       -7.16246
C          4.56744        0.05682       -7.41567
C          5.06316        0.55697       -8.56852
C          5.04927        1.96874       -8.86608
C          4.46012        2.95308       -7.94756
C          3.95565        2.65875       -6.75274
S          3.92591        1.05227       -6.10356
C          4.57176        4.21256       -8.56662
C          5.19570        4.06764       -9.78283
C          5.37939        5.28224      -10.46166
C          4.85296        6.32478       -9.70933
S          4.16569        5.78941       -8.20657
C          5.49195        2.66447       -9.95617
C          6.14100        2.14275      -11.13159
C          7.30414        1.47838      -11.09187
C          7.96712        0.99227      -12.28706
C          9.11741        0.30066      -12.36083
C          9.86288       -0.20853      -13.54188
C          9.44824       -0.30883      -14.83011
C         10.13751       -1.08251      -15.81167
N         10.67901       -1.73311      -16.60521
C          8.27766        0.33536      -15.31595
N          7.35501        0.91190      -15.71996
C         11.17224       -0.70830      -13.03049
C         11.15704       -0.68658      -11.63406
C          9.90479       -0.10936      -11.14102
O          9.62152       -0.00543       -9.96481
C         12.22936       -1.07911      -10.84717
C         13.40265       -1.48312      -11.49002
C         13.47748       -1.43966      -12.90937
C         12.35924       -1.04781      -13.66834
C         14.67998       -1.78416      -13.54083
C         15.77992       -2.20370      -12.79344
C         15.69394       -2.27941      -11.40585
C         14.51585       -1.91138      -10.75535
H         19.52070      -10.38021       -3.17318
H         19.63089      -13.32384       -0.08198
H         17.38736      -12.63036        0.71244
H         17.58568       -8.91974       -3.42452
H         15.39834      -11.09965        0.50999
H         12.46858       -6.92098       -0.34912
H         10.99861       -5.69346       -2.43693
H         14.48405       -2.01010       -1.61495
H          9.36892       -0.50122       -4.64967
H         10.83078        1.62698       -4.02832
H          9.79676       -4.52063       -4.79695
H          8.03333       -2.81219       -2.93144
H          6.26137       -2.40364       -4.91222
H          5.27134       -7.45641       -4.78209
H          1.11731       -3.82530       -7.44256
H          0.37053       -6.37461       -7.38906
H          2.90901       -1.63186       -5.95963
H          5.47621       -1.89950       -7.63683
H          5.46776       -0.10455       -9.33083
H          3.55127        3.44179       -6.12106
H          5.86325        5.41728      -11.42099
H          4.83616        7.37846       -9.95206
H          5.65188        2.36601      -12.07770
H          7.78174        1.32197      -10.12719
H          7.42843        1.26057      -13.18804
H         12.15376       -1.04058       -9.76358
H         12.46579       -0.99242      -14.74649
H         14.77117       -1.73360      -14.62436
H         16.70338       -2.47768      -13.29720
H         16.54703       -2.62301      -10.82685
H         14.47392       -1.96681       -9.66933
