119

C          7.61837       -9.77489      -10.69893
C          7.14701      -10.37200      -11.86134
F          7.16256      -11.70708      -11.96597
C          6.64247       -9.60960      -12.90581
C          6.62247       -8.21744      -12.79916
C          7.07971       -7.58438      -11.63163
C          7.57056       -8.38282      -10.55604
C          7.95695       -7.78519       -9.34377
C          7.79915       -6.41842       -9.17825
C          7.40023       -5.63971      -10.27725
C          7.04140       -6.18856      -11.49863
C          7.41562       -4.20570       -9.92235
O          7.14949       -3.27628      -10.65464
C          7.88713       -4.15292       -8.49781
C          7.84647       -5.52841       -7.98548
C          7.49627       -5.93531       -6.73793
C          6.92375       -5.04464       -5.78105
N          6.37144       -4.37921       -5.01147
C          7.47019       -7.30074       -6.34278
N          7.46720       -8.41332       -6.01297
C          8.47174       -3.02769       -8.05333
C          9.27763       -2.99100       -6.88204
S         10.97752       -3.35883       -7.01391
C         11.16166       -3.21028       -5.37082
C         10.02277       -2.83112       -4.69131
C          8.93527       -2.65817       -5.57371
C         10.27409       -2.70943       -3.17978
C         10.12494       -1.26557       -2.70042
C          9.40971       -3.66695       -2.35626
C         11.74291       -3.14059       -3.17022
C         12.20802       -3.40272       -4.44228
S         13.78103       -3.91554       -4.51191
C         13.90666       -3.83315       -2.77278
C         12.72968       -3.37353       -2.19112
C         15.12730       -4.24853       -2.18478
C         15.57230       -3.72676       -1.03287
C         16.82271       -4.12170       -0.46984
C         18.02226       -4.54880       -1.06285
C         18.20379       -4.55881       -2.48213
N         18.28772       -4.52509       -3.63816
C         18.97028       -4.86379       -0.07486
C         18.54570       -4.58829        1.17846
S         16.98107       -4.03116        1.26650
S         19.69623       -4.84375        2.37801
C         20.76966       -5.35401        1.18697
C         20.27272       -5.35824       -0.06982
C         21.16568       -5.88840       -1.02807
C         20.92029       -6.16808       -2.41077
N         20.78193       -6.43868       -3.52973
C         22.38044       -6.22010       -0.41597
S         22.34486       -5.86109        1.29477
C         23.57409       -6.80517       -1.00136
S         24.59277       -7.85034       -0.04700
C         25.63947       -8.02753       -1.31112
C         25.27338       -7.38573       -2.47413
C         24.06572       -6.66697       -2.30167
C         26.30182       -7.62565       -3.59450
C         25.69792       -8.41625       -4.75774
C         26.93295       -6.32028       -4.08095
C         27.30054       -8.47652       -2.79140
C         26.86865       -8.68756       -1.50051
S         27.87411       -9.60343       -0.55324
C         29.00941       -9.74317       -1.86330
C         28.54871       -9.09424       -3.01209
C         30.21542      -10.46217       -1.63527
C         31.33358      -10.11801       -2.28837
C         32.59356      -10.79849       -2.11953
C         33.74417      -10.52363       -2.74901
C         34.99505      -11.09416       -2.15264
O         35.10429      -12.03832       -1.39907
C         36.07977      -10.21249       -2.60936
C         37.40219      -10.28214       -2.20378
C         38.29433       -9.33044       -2.70616
C         37.81859       -8.30588       -3.57682
C         38.72618       -7.35897       -4.06951
C         40.07094       -7.43259       -3.72236
C         40.54250       -8.42823       -2.87804
C         39.65478       -9.37328       -2.36450
F         40.92711       -6.52971       -4.21756
C         36.45856       -8.25918       -3.94812
C         35.58752       -9.23923       -3.49340
C         34.15278       -9.54594       -3.76878
C         33.48301       -9.20275       -4.89719
C         32.25124       -9.81304       -5.27802
N         31.24938      -10.29211       -5.61511
C         33.99239       -8.27444       -5.84949
N         34.39435       -7.50222       -6.61686
H          7.99067      -10.41367       -9.90215
H          6.26234      -10.10461      -13.79398
H          6.22196       -7.63386      -13.62591
H          8.33019       -8.41571       -8.54239
H          6.70724       -5.54481      -12.30817
H          8.46802       -2.13144       -8.67320
H          7.93836       -2.36573       -5.26793
H          9.08958       -0.92207       -2.79736
H         10.75532       -0.58241       -3.28293
H         10.42143       -1.16558       -1.64998
H          8.34698       -3.41503       -2.43799
H          9.68264       -3.62724       -1.29431
H          9.52868       -4.70808       -2.68069
H         12.58478       -3.26048       -1.12380
H         15.68535       -5.00388       -2.72943
H         14.98295       -2.98707       -0.49429
H         23.60242       -6.07283       -3.08023
H         24.91760       -7.83817       -5.26589
H         25.24190       -9.35423       -4.41850
H         26.46273       -8.67492       -5.49941
H         26.18958       -5.67948       -4.56889
H         27.73507       -6.51433       -4.80268
H         27.36856       -5.74697       -3.25398
H         29.08885       -9.07633       -3.95077
H         30.21123      -11.27321       -0.91084
H         31.30438       -9.25287       -2.94065
H         32.60460      -11.55949       -1.33501
H         37.71912      -11.06317       -1.51772
H         38.40750       -6.56367       -4.73816
H         41.59795       -8.46469       -2.62713
H         40.03657      -10.14903       -1.70332
H         36.12505       -7.45237       -4.59355
