108

C         10.24680      -11.75807      -11.09496
C         10.51823      -12.37615      -12.30896
F          9.75131      -13.39863      -12.70885
C         11.58162      -11.96633      -13.10089
C         12.38881      -10.90888      -12.67847
C         12.15446      -10.28265      -11.44372
C         11.06941      -10.72228      -10.63340
C         10.86220      -10.16682       -9.35540
C         11.78056       -9.26451       -8.84051
C         12.80084       -8.80248       -9.68460
C         12.99692       -9.26797      -10.97633
C         13.66780       -7.85182       -8.97458
O         14.60349       -7.24597       -9.45429
C         13.13326       -7.77244       -7.57320
C         12.07772       -8.78941       -7.45168
C         11.73863       -9.49495       -6.34405
C         12.56236       -9.49889       -5.18009
N         13.26432       -9.61840       -4.26478
C         10.66556      -10.43280       -6.31397
N          9.77568      -11.17883       -6.30784
C         13.57955       -6.76866       -6.80378
C         13.13869       -6.29215       -5.50328
C         11.87368       -5.86732       -5.30248
C         11.48094       -5.18929       -4.08654
C         12.47665       -4.75179       -3.09599
C         13.76448       -5.08886       -3.12225
S         14.43999       -6.14528       -4.32410
C         11.79155       -3.97797       -2.13980
C         10.45242       -3.95393       -2.44244
C          9.70582       -3.22619       -1.49523
C         10.53617       -2.68943       -0.52661
S         12.19652       -3.10607       -0.77227
C         10.26572       -4.70680       -3.67574
C          9.01312       -4.86448       -4.39114
C          7.84390       -4.36192       -3.97766
C          6.58827       -4.46273       -4.62600
C          5.68003       -3.31717       -4.88538
N          4.50515       -3.60590       -5.35949
C          4.53033       -4.96316       -5.41020
C          5.80792       -5.48043       -4.97982
C          5.77108       -6.97548       -4.99826
S          7.01314       -8.05021       -4.75110
C          4.34348       -7.23311       -5.36855
C          3.69998       -5.96808       -5.65385
N          2.40672       -6.14936       -6.02062
C          2.27353       -7.44254       -5.94433
C          3.46207       -8.22000       -5.49935
C          3.49453       -9.64098       -5.31486
C          3.19115      -10.43417       -6.35844
C          3.19220      -11.86916       -6.27525
C          3.36069      -12.56024       -4.99063
C          3.63374      -11.94887       -3.83790
S          3.85281      -10.22425       -3.69732
C          3.19963      -13.93426       -5.25580
C          2.98008      -14.12280       -6.59997
C          2.79744      -15.47081       -6.94780
C          2.88633      -16.26581       -5.81273
S          3.19408      -15.34954       -4.36997
C          2.99498      -12.82386       -7.23710
C          2.74083      -12.62559       -8.65295
C          3.32813      -11.67316       -9.39438
C          3.02966      -11.40155      -10.78000
C          3.81891      -10.82727      -11.70243
C          3.34364      -10.87098      -13.11999
O          2.21094      -11.07132      -13.52404
C          4.52887      -10.66684      -13.95448
C          4.54071      -10.64587      -15.34166
C          5.75712      -10.40595      -15.98058
C          6.94804      -10.25457      -15.20691
C          8.15947      -10.00987      -15.87208
C          8.18670       -9.89509      -17.25971
C          7.02363      -10.03225      -18.00372
C          5.81195      -10.29389      -17.37593
F          7.05553       -9.90480      -19.33725
F          9.35062       -9.63611      -17.87173
C          6.89541      -10.31443      -13.79620
C          5.67022      -10.47115      -13.15939
C          5.21527      -10.36008      -11.73496
C          5.87173       -9.64620      -10.79025
C          5.20353       -9.06971       -9.66821
N          4.67067       -8.56113       -8.78183
C          7.23288       -9.25830      -10.90349
N          8.34465       -8.93692      -10.97282
H          9.41513      -12.12376      -10.49949
H         11.78822      -12.48302      -14.03291
H         13.22760      -10.60498      -13.30206
H         10.00855      -10.50620       -8.77940
H         13.83357       -8.90010      -11.56457
H         14.39464       -6.15561       -7.20219
H         11.14600       -5.91513       -6.10549
H         14.44362       -4.73423       -2.35358
H          8.63998       -3.06228       -1.46672
H         10.23957       -2.07496        0.31506
H          9.04427       -5.41966       -5.32509
H          7.76986       -3.79135       -3.06618
H          6.02855       -2.29505       -4.66730
H          1.34115       -7.97389       -6.18280
H          2.92063       -9.98559       -7.30767
H          3.75218      -12.52484       -2.92533
H          2.60778      -15.85927       -7.93973
H          2.78582      -17.34056       -5.74486
H          2.05861      -13.33451       -9.11694
H          4.05154      -11.04502       -8.90305
H          2.03974      -11.74191      -11.09798
H          3.61423      -10.77975      -15.89499
H          9.09002       -9.88395      -15.32467
H          4.91797      -10.38913      -17.98734
H          7.82148      -10.20205      -13.24077
