135

C         10.70635       -0.67580       -4.44547
C         11.00457       -1.59191       -5.44141
F         11.76280       -2.65632       -5.14756
C         10.49407       -1.44227       -6.72366
C          9.66404       -0.35456       -7.02329
C          9.29857        0.56799       -6.02606
C          9.83773        0.38614       -4.71624
C          9.40770        1.18408       -3.65829
C          8.31979        2.00917       -3.87143
C          7.88193        2.30671       -5.16717
C          8.37000        1.60926       -6.26340
C          6.80259        3.33423       -5.08514
O          6.24829        3.87334       -6.02291
C          6.56444        3.56236       -3.60378
C          7.26775        2.46963       -2.93350
C          6.73975        1.60333       -2.02948
C          5.38765        1.64981       -1.60869
N          4.26610        1.56598       -1.29666
C          7.40732        0.40160       -1.64012
N          7.96198       -0.56935       -1.35913
C          5.94799        4.65471       -3.12135
C          5.87527        4.99965       -1.72945
S          4.42153        4.65679       -0.86636
C          4.99002        5.33209        0.57818
C          6.21599        5.93067        0.41509
C          6.74789        5.72305       -0.91206
C          8.05898        6.35824       -1.30571
C          8.92456        6.79893       -0.09441
C          8.08912        7.56208        0.96621
O          7.63667        8.78650        0.35809
C          7.33757        9.81503        1.29151
C          6.91821        6.71176        1.49012
N          9.64903        5.67840        0.53232
C         10.86817        5.81497        1.16097
C         11.60390        4.85761        1.74003
C         12.95060        5.09495        2.15665
S         14.06148        3.77979        1.98560
C         15.40218        4.76343        2.33414
C         15.03067        6.03010        2.72159
C         13.60224        6.19883        2.71103
C         12.96137        7.42669        3.30358
C         13.93987        8.48071        3.88213
C         15.34279        7.96412        4.29515
O         15.31183        7.18963        5.51257
C         14.98607        7.94082        6.67862
C         15.96352        7.11409        3.17009
N         14.03610        9.65716        2.99939
C         13.16384       10.71467        3.07845
C         13.10383       11.83290        2.34386
C         12.15839       12.86743        2.64238
S         10.60271       12.51265        3.32435
C         10.20082       14.15419        3.50395
C         11.19310       14.97698        3.03302
C         12.27915       14.23916        2.46054
C         13.40620       15.01115        1.84843
C         12.86910       16.23596        1.06267
C         11.80079       17.11750        1.81784
O         10.73908       17.42329        0.88013
C          9.87937       18.48257        1.28635
C         11.24105       16.47007        3.10232
N         13.99803       17.06401        0.59303
C         14.94432       17.67513        1.37626
C         15.98408       18.40987        0.96661
C         16.95664       18.94109        1.89647
C         17.27473       20.22076        2.15309
C         18.12702       20.49249        3.36365
O         18.77288       19.70034        4.01528
C         17.99002       21.93244        3.64403
C         18.64218       22.63188        4.65180
C         18.45512       24.01970        4.73178
C         17.56404       24.65874        3.82408
C         17.39939       26.04911        3.89284
C         18.12048       26.79430        4.82050
C         18.99473       26.18392        5.70873
C         19.15481       24.79679        5.67160
F         17.98586       28.12810        4.84029
C         16.89076       23.90049        2.84096
C         17.13223       22.53577        2.71317
C         16.78081       21.52065        1.66673
C         16.34721       21.83337        0.41910
C         16.55170       20.99360       -0.70703
N         16.76724       20.38132       -1.66467
C         15.74434       23.07383        0.10292
N         15.20679       24.07824       -0.15295
H         11.09462       -0.85169       -3.44490
H         10.72722       -2.18980       -7.47564
H          9.25736       -0.27264       -8.02932
H          9.80811        1.03332       -2.65940
H          7.95923        1.78553       -7.25387
H          5.49172        5.35645       -3.81931
H          4.37472        5.31853        1.46880
H          7.81677        7.25471       -1.89382
H          8.63096        5.68922       -1.95713
H          9.67213        7.49488       -0.49890
H          8.73713        7.81693        1.81634
H          7.13533       10.72971        0.72765
H          8.18657       10.00180        1.95605
H          6.44697        9.56699        1.87382
H          6.18186        7.34563        1.99766
H          7.29110        5.99279        2.22997
H          9.42928        4.74134        0.20269
H         11.24424        6.83181        1.09798
H         11.22221        3.84028        1.77849
H         16.39947        4.34877        2.28731
H         12.32382        7.07687        4.12808
H         12.29162        7.90770        2.58468
H         13.45033        8.84997        4.78713
H         16.01744        8.81231        4.47381
H         14.97711        7.26288        7.53637
H         13.98622        8.37406        6.61498
H         15.72265        8.72991        6.86143
H         16.90793        6.66725        3.50283
H         16.19238        7.75125        2.30423
H         14.83530        9.74632        2.37866
H         12.45331       10.56963        3.89089
H         13.81806       11.99134        1.54262
H          9.26242       14.43517        3.96077
H         14.00000       14.38336        1.17379
H         14.07371       15.32829        2.65842
H         12.37891       15.84585        0.15851
H         12.25573       18.07714        2.09644
H          9.24377       18.75044        0.43762
H         10.44890       19.36735        1.58601
H          9.22063       18.16589        2.09915
H         10.25307       16.85501        3.36660
H         11.91008       16.73036        3.93404
H         14.18331       17.02558       -0.40893
H         14.79327       17.51190        2.44133
H         16.14374       18.54109       -0.09534
H         17.41322       18.16388        2.51605
H         19.30922       22.11016        5.33056
H         16.74317       26.57577        3.20690
H         19.55345       26.78938        6.41422
H         19.84971       24.33228        6.36787
H         16.22027       24.43042        2.17560
