100

C         -0.23898       -0.61314       -0.47454
C         -0.60853       -1.14670        0.95836
C          0.30335       -1.90188        1.73255
C         -0.03486       -2.36146        3.01679
C         -1.29685       -2.11606        3.55250
C         -2.21051       -1.37055        2.83214
C         -1.86116       -0.85690        1.58833
C         -0.57812       -1.61334       -1.65934
C         -1.17219       -2.90169       -1.48331
C         -1.49543       -3.74049       -2.55221
C         -1.16923       -3.37378       -3.84464
C         -0.55106       -2.15043       -4.06968
C         -0.27715       -1.27332       -3.00660
C          1.24234       -0.03614       -0.50575
C          1.29396        1.31808       -0.57989
C         -0.01509        1.97478       -0.49973
C         -0.24620        3.28745       -0.22668
C          0.80128        4.25719        0.02615
N          1.60168        5.06818        0.23695
C         -1.58344        3.83464       -0.19817
N         -2.62280        4.34371       -0.16172
S         -1.33982        0.83133       -0.79897
C          2.49594        2.10220       -0.80148
N          3.44794        2.72441       -1.02420
C          2.50307       -0.90760       -0.48052
C          2.41354       -2.17993       -1.02512
C          3.45088       -3.07044       -1.05698
C          4.71057       -2.79524       -0.54180
C          4.85073       -1.47590       -0.00572
C          3.77777       -0.58305        0.06991
N          4.06307        0.54358        0.75013
Se         5.74944        0.58811        1.34067
N          5.98723       -0.97082        0.49052
C          5.73557       -3.94380       -0.57409
C          5.53250       -4.93912       -1.81678
C          5.85091       -6.29922       -1.75311
C          6.05290       -7.11283       -2.89914
C          5.50976       -6.73358       -4.10849
C          4.82579       -5.51723       -4.14048
C          4.90974       -4.61221       -3.05987
C          5.56580       -7.62767       -5.30111
O          4.67297       -7.56349       -6.12947
O          6.57877       -8.50350       -5.51344
C          6.78627       -4.04165        0.42902
C          6.72091       -3.27894        1.85809
C          5.47301       -2.99159        2.51000
C          5.38914       -2.38575        3.79526
C          6.53484       -2.03386        4.51866
C          7.76027       -2.27870        3.93033
C          7.84548       -2.88184        2.67055
C          6.45463       -1.44292        5.88853
O          5.51610       -1.73381        6.61312
O          7.40613       -0.60674        6.36927
C          8.05375       -4.95597        0.18460
N          9.29402       -4.73546        0.69262
C         10.12993       -5.65914        0.19214
C          9.49560       -6.51884       -0.56655
C          8.29355       -6.05112       -0.67175
C         11.54743       -5.72711        0.30568
C         12.73442       -5.91537        0.26753
C         14.16153       -6.11601        0.27767
C         14.91112       -6.55098       -0.83845
C         16.25349       -6.76333       -0.76547
N         16.75884       -7.18222       -1.99946
S         15.63138       -7.29259       -3.14122
N         14.45852       -6.82723       -2.13609
C         16.97963       -6.58910        0.41465
C         16.26150       -6.17377        1.54440
C         16.80403       -5.98559        2.80727
S         15.55197       -5.51846        3.83181
C         14.31351       -5.54549        2.69290
C         14.86850       -5.92943        1.47626
H          1.29374       -2.12350        1.38204
H          0.68212       -2.91592        3.60415
H         -1.56419       -2.47848        4.53552
H         -3.19594       -1.16633        3.23749
H         -2.61787       -0.22750        1.16747
H         -1.40330       -3.34052       -0.54769
H         -1.98389       -4.69192       -2.36235
H         -1.37811       -4.04059       -4.67164
H         -0.28499       -1.87907       -5.08015
H          0.19687       -0.34324       -3.26263
H          1.53019       -2.55962       -1.43566
H          3.19886       -4.01303       -1.49030
H          6.10674       -6.73752       -0.80013
H          6.59698       -8.05784       -2.81507
H          4.29243       -5.22974       -5.03007
H          4.45022       -3.66059       -3.22894
H          7.40120       -8.50392       -5.00440
H          4.52804       -3.23966        2.05729
H          4.42162       -2.17030        4.23200
H          8.68326       -2.02725        4.44960
H          8.84350       -2.94002        2.43279
H          8.14149       -0.27574        5.83555
H          9.70944       -4.00555        1.24099
H          9.81609       -7.39700       -1.11265
H          7.91265       -6.65918       -1.38620
H         18.04605       -6.78167        0.45763
H         17.83841       -6.13236        3.09099
H         13.27107       -5.32512        2.88289
