122

C         -0.99597       -5.51440        2.05717
C         -1.11700       -4.33123        3.06630
C         -0.66995       -3.02895        2.79129
C         -0.69201       -2.02675        3.76949
C         -1.18339       -2.29530        5.04214
C         -1.69236       -3.55558        5.32766
C         -1.66816       -4.55602        4.35178
C         -0.17199       -6.71146        2.60589
C         -0.38788       -8.03847        2.17115
C          0.33968       -9.10955        2.69869
C          1.30074       -8.88420        3.67611
C          1.55944       -7.58518        4.09996
C          0.85288       -6.50979        3.55195
C         -0.56257       -5.11942        0.60965
C         -1.57952       -5.04338       -0.29555
C         -2.93035       -5.35546        0.20456
C         -4.15513       -5.15772       -0.35012
C         -4.33266       -4.46501       -1.57882
N         -4.51061       -3.87702       -2.56415
C         -5.36125       -5.58571        0.28403
N         -6.34922       -5.93587        0.78879
S         -2.80333       -6.09116        1.78815
C         -1.34039       -4.82042       -1.68720
N         -1.14379       -4.66987       -2.81802
C          0.80973       -4.93618        0.15550
C          1.57238       -3.76720        0.01543
C          2.89510       -4.03805       -0.42020
C          3.08618       -5.38465       -0.63960
S          1.74149       -6.32636       -0.37176
C          4.42392       -5.59853       -1.05127
C          5.07897       -4.38452       -1.09365
C          4.14359       -3.32015       -0.71471
C          4.37278       -1.98961       -0.66191
C          5.63551       -1.43547       -0.99993
N          6.66940       -0.97659       -1.28225
C          3.35193       -1.07721       -0.27257
N          2.51000       -0.35317        0.05833
C          6.42995       -4.53815       -1.48632
C          6.74194       -5.87760       -1.74410
S          5.36128       -6.90707       -1.47714
C          7.97351       -6.43340       -2.21699
C          8.97794       -6.81575       -1.41159
C         10.29596       -7.22295       -1.86020
C         11.22464       -7.19542       -0.88707
C         10.69070       -6.76683        0.39736
S          8.92246       -6.78629        0.32723
C         11.36420       -6.28072        1.45882
C         12.79479       -6.07006        1.59029
C         13.12761       -5.27452        2.62221
C         11.98737       -4.80167        3.38433
S         10.53928       -5.62665        2.87839
C         12.02549       -3.83601        4.31821
C         10.85718       -3.34435        4.97948
C         10.02473       -2.27804        4.61866
C          8.96720       -2.10918        5.54216
C          9.02684       -3.05084        6.54375
S         10.32116       -4.08960        6.45911
C          7.95538       -2.83457        7.43459
C          7.23367       -1.74061        7.02859
C          7.80440       -1.24214        5.77319
C          7.34329       -0.24560        4.99232
C          6.14730        0.45609        5.29795
N          5.15670        1.01741        5.52544
C          8.01307        0.13304        3.79864
N          8.55966        0.44861        2.82281
C          6.21737       -1.41232        7.96619
C          6.19309       -2.28810        9.06623
S          7.34857       -3.59624        8.76556
C          5.35496       -2.29743       10.26777
C          5.82258       -2.79460       11.45721
C          4.86368       -2.82802       12.56668
C          4.72044       -3.75413       13.54298
C          5.50965       -4.94044       13.58564
N          6.12457       -5.92320       13.59082
C          3.68986       -3.66149       14.52469
N          2.85364       -3.60607       15.32748
S          3.73644       -1.51983       12.32981
C          3.85679       -1.81120       10.36217
C          2.80769       -2.94520       10.14235
C          1.45480       -2.72589       10.49421
C          0.52932       -3.76971       10.50369
C          0.92727       -5.05071       10.14011
C          2.23687       -5.27834        9.72633
C          3.16661       -4.23476        9.71255
C          3.51183       -0.48319        9.65846
C          3.81558        0.77860       10.21009
C          3.37866        1.96298        9.60638
C          2.67069        1.91905        8.41134
C          2.42160        0.69316        7.80506
C          2.84039       -0.49246        8.41709
C          7.17234       -3.16675       11.74577
N          8.25358       -3.47249       12.03016
H         -0.28733       -2.74936        1.81933
H         -0.31491       -1.03299        3.53582
H         -1.17647       -1.52247        5.80666
H         -2.09719       -3.76833        6.31429
H         -2.07469       -5.53269        4.61611
H         -1.13782       -8.27598        1.41981
H          0.14590      -10.12162        2.35047
H          1.84991       -9.71933        4.10321
H          2.31004       -7.40638        4.86567
H          1.10475       -5.50986        3.90059
H          1.18572       -2.78065        0.23508
H          7.16361       -3.74712       -1.59613
H          8.11486       -6.44775       -3.29365
H         10.51164       -7.46805       -2.89198
H         12.27029       -7.41729       -1.05401
H         13.52105       -6.47914        0.90082
H         14.14257       -4.97826        2.85272
H         12.96813       -3.35810        4.56758
H         10.20301       -1.68654        3.72825
H          5.56505       -0.55337        7.87701
H          1.11837       -1.73927       10.81556
H         -0.49402       -3.58548       10.82265
H          0.21707       -5.87281       10.18116
H          2.54267       -6.28004        9.43255
H          4.17710       -4.47281        9.39225
H          4.36820        0.87545       11.14206
H          3.58123        2.92164       10.07911
H          2.32180        2.83852        7.94762
H          1.89535        0.65940        6.85397
H          2.61585       -1.42973        7.91013
