115

C          4.70496        2.88105       -2.03779
C          4.95878        2.96735       -3.57683
C          4.55656        1.96341       -4.47907
C          4.80184        2.06533       -5.85256
C          5.40645        3.20208       -6.37224
C          5.78042        4.23132       -5.51619
C          5.57774        4.10869       -4.13657
C          5.96836        2.97156       -1.14064
C          5.91834        3.48768        0.17454
C          7.05244        3.53883        0.99038
C          8.26118        3.03265        0.53229
C          8.33905        2.49490       -0.74790
C          7.21224        2.47808       -1.57865
C          3.74332        1.70900       -1.59432
C          2.43587        2.09450       -1.48413
C          2.13218        3.51132       -1.75506
C          0.95832        4.11292       -2.06959
C         -0.23488        3.38662       -2.33964
N         -1.19721        2.80056       -2.60893
C          0.85124        5.52983       -2.22579
N          0.74806        6.67994       -2.33956
S          3.60787        4.43690       -1.66809
C          1.38510        1.24642       -1.02548
N          0.52527        0.58970       -0.60966
C          4.15068        0.31805       -1.33488
C          3.65327       -0.66183       -0.45083
C          4.28376       -1.92359       -0.60867
C          5.26658       -1.87024       -1.56286
S          5.49187       -0.38212       -2.24048
C          5.84731       -3.14673       -1.70556
C          5.23434       -4.01951       -0.83805
C          4.21745       -3.29319       -0.07202
C          3.43260       -3.76159        0.92032
C          3.50982       -5.11204        1.35436
N          3.58766       -6.21814        1.70308
C          2.52326       -2.91910        1.61249
N          1.79927       -2.22867        2.19495
C          5.77637       -5.32343       -0.94681
C          6.80568       -5.37044       -1.89304
S          7.04533       -3.81154       -2.63786
C          7.64072       -6.50845       -2.23581
C          7.97685       -7.59012       -1.41453
C          8.85898       -8.48191       -2.07236
C          9.14993       -8.05226       -3.34679
S          8.38055       -6.65816       -3.80685
C         10.07925       -8.93646       -3.93434
C         10.37603       -9.93568       -3.03461
C          9.59170       -9.72630       -1.81025
C          9.53072      -10.50820       -0.71580
C         10.27044      -11.71873       -0.61911
N         10.86912      -12.71046       -0.53887
C          8.70284      -10.17603        0.39653
N          8.03724       -9.90295        1.29957
C         11.35633      -10.81486       -3.55186
C         11.75871      -10.43203       -4.83673
S         10.90496       -9.01468       -5.37446
C         12.77633      -10.98667       -5.66998
C         12.60740      -12.06307       -6.45294
C         13.67229      -12.70284       -7.19780
C         13.36263      -13.94138       -7.61737
C         12.02023      -14.35499       -7.23860
S         11.12055      -12.94532       -6.65094
C         11.52908      -15.60866       -7.17392
C         12.23192      -16.85451       -7.42711
C         11.60748      -17.93390       -6.92095
C         10.35266      -17.62283       -6.26006
S          9.91307      -15.96222       -6.56263
C          9.65975      -18.44380       -5.44906
C          8.43948      -18.07999       -4.72343
C          8.02695      -18.56897       -3.53996
C          6.95380      -18.07764       -2.63856
C          5.71997      -17.64619       -2.98979
C          4.71374      -17.32891       -2.03212
N          3.89596      -17.07291       -1.24993
C          5.31618      -17.55213       -4.35208
N          4.98631      -17.47130       -5.45895
C          7.44096      -18.32022       -1.24692
C          8.54765      -19.17599       -1.32863
C          8.85451      -19.51207       -2.72411
O          9.61823      -20.37705       -3.09617
C          9.32546      -19.52971       -0.24311
C          9.00071      -18.98316        0.99831
C          7.85587      -18.14973        1.13761
C          7.08092      -17.81706       -0.00098
C          7.54540      -17.64823        2.41329
C          8.36653      -17.92529        3.51047
C          9.51546      -18.69415        3.34956
C          9.82620      -19.22781        2.10137
H          4.04146        1.06659       -4.15110
H          4.51075        1.25384       -6.51617
H          5.57871        3.28731       -7.44219
H          6.23048        5.13442       -5.92205
H          5.89068        4.93755       -3.50164
H          4.99544        3.87683        0.59908
H          6.98487        3.97079        1.98630
H          9.13903        3.05518        1.17267
H          9.28061        2.08365       -1.10387
H          7.32600        2.05143       -2.57383
H          2.85151       -0.47669        0.25245
H          5.46512       -6.19458       -0.38194
H          7.61980       -7.68040       -0.39538
H         11.79105      -11.66668       -3.04161
H         13.75654      -10.52390       -5.60192
H         14.63699      -12.23698       -7.34886
H         14.05572      -14.58043       -8.14709
H         13.19356      -16.90273       -7.92037
H         12.01045      -18.93770       -6.96281
H         10.05619      -19.44204       -5.26937
H          7.88310      -17.25847       -5.17002
H         10.19205      -20.16825       -0.38323
H          6.25212      -17.12739        0.12257
H          6.66407      -17.02815        2.56724
H          8.11655      -17.52885        4.49176
H         10.17323      -18.88073        4.19468
H         10.73314      -19.81871        1.99135
