73

C         -3.48173       -0.64013       -8.78148
C         -2.34813       -0.73122       -8.00111
F         -1.13565       -0.76758       -8.47990
C         -2.66936       -0.77451       -6.62486
C         -4.02643       -0.70927       -6.46036
S         -4.95721       -0.60581       -7.86720
C         -4.48066       -0.72834       -5.16063
C         -3.52734       -0.81414       -4.18831
S         -2.01904       -0.87379       -5.02872
C         -4.13443       -0.82292       -2.90963
F         -3.45757       -0.91961       -1.79756
C         -5.52108       -0.75080       -2.98425
S         -6.08030       -0.64972       -4.63998
C         -6.46012       -0.75484       -1.87195
C         -6.22865       -0.30713       -0.57708
F         -5.11754        0.24705       -0.17295
C         -7.32986       -0.54970        0.27903
C         -8.35340       -1.12329       -0.41822
S         -8.07932       -1.40088       -2.05684
C         -9.48356       -1.43982        0.30498
C         -9.43899       -1.16848        1.63988
S         -7.90208       -0.42376        1.90412
C        -10.62939       -1.60534        2.26819
F        -10.83263       -1.49173        3.55319
C        -11.53196       -2.17195        1.37106
S        -10.90372       -2.14302       -0.26564
C        -12.86957       -2.68774        1.65590
S        -13.78989       -1.99983        2.92939
C        -15.17991       -2.96298        2.63179
C        -14.95178       -3.81151        1.55410
C        -13.59337       -3.70143        1.03582
C        -13.10812       -4.59671       -0.07966
C        -14.04111       -5.77686       -0.35240
C        -15.49808       -5.31062       -0.41711
C        -16.42685       -6.43105       -0.83301
O        -16.05672       -7.55835       -1.14427
C        -15.93973       -4.78345        0.95254
C        -16.37092       -2.83157        3.46895
C        -17.28471       -3.81865        3.82303
F        -17.21424       -5.07093        3.46388
C        -18.31765       -3.33040        4.65624
C        -18.13281       -2.00671        4.91725
S        -16.79958       -1.28144        4.18233
C        -19.04926       -1.41761        5.75855
C        -20.05499       -2.22085        6.21178
S        -19.75347       -3.76983        5.50996
C        -20.92442       -1.48998        7.05351
F        -21.98829       -2.00917        7.60627
C        -20.51854       -0.17011        7.20863
S        -19.06532        0.17888        6.29769
C        -21.14348        0.86751        8.01050
C        -21.14324        2.23651        7.77792
F        -20.57914        2.81831        6.75388
C        -21.84462        2.94942        8.77597
C        -22.33678        2.08881        9.71366
S        -22.00738        0.45293        9.47539
C        -23.04537        2.65986       10.74795
C        -23.17045        4.02273       10.71111
S        -22.33745        4.52328        9.28575
C        -23.91250        4.47186       11.82618
F        -24.19965        5.71985       12.07287
C        -24.29928        3.42014       12.63078
S        -23.77309        1.86925       12.05212
H         -3.53160       -0.58852       -9.86006
H        -12.11291       -4.98894        0.16015
H        -13.03095       -4.00587       -0.99917
H        -13.92915       -6.53143        0.43797
H        -13.74426       -6.26282       -1.28970
H        -15.59651       -4.52091       -1.17304
H        -17.49693       -6.16412       -0.88522
H        -16.05384       -5.63451        1.63418
H        -16.92153       -4.30416        0.85473
H        -24.87330        3.47374       13.54517
