85

C         -3.62510        1.44552        2.58521
N         -4.46690        0.50429        3.07340
N         -4.37577       -0.89270        2.72013
C         -3.44405       -1.41482        1.85973
C         -2.54182       -0.45077        1.34998
C         -2.64613        0.96182        1.70957
N         -1.68175        1.63642        1.06946
O         -0.98675        0.69373        0.33531
N         -1.49427       -0.57781        0.51962
C         -3.42078       -2.88136        1.56452
C         -4.87552       -3.42152        1.71522
N         -3.07266       -3.14579        0.23013
N         -2.25833       -4.27684       -0.24997
C         -1.65955       -5.24041        0.55515
C         -1.64567       -4.73589        1.92328
C         -2.47553       -3.61699        2.39392
N         -2.20791       -3.43507        3.69848
O         -1.24832       -4.36337        4.03593
N         -0.88587       -5.13902        2.95756
C         -0.25381       -5.61798        0.02507
C         -2.50555       -6.52859        0.43072
C         -3.28659       -6.98743       -0.62790
C         -3.17855       -6.57513       -2.02906
O         -2.13377       -6.18193       -2.51912
C         -4.38776       -6.85031       -2.82063
C         -5.55487       -7.54447       -2.26489
C         -6.56948       -7.69096       -3.20328
S         -6.10908       -7.01646       -4.71320
C         -4.57057       -6.49990       -4.15428
C         -3.70879       -5.77309       -5.15707
F         -2.53317       -5.30686       -4.68820
F         -3.41252       -6.57195       -6.21686
F         -4.36312       -4.69100       -5.66139
C         -7.94263       -8.31219       -3.14364
F         -8.27073       -8.88335       -1.96666
F         -8.90551       -7.38643       -3.40600
F         -8.07541       -9.28617       -4.08283
C         -5.61809       -7.99948       -0.86393
O         -6.64869       -8.34133       -0.31120
C         -4.35769       -7.82837       -0.13478
C         -4.01559       -8.43663        1.06808
S         -2.62545       -7.66199        1.72453
C         -4.61576       -9.56447        1.80464
C         -4.61834       -9.69823        3.21032
C         -5.17029      -10.81430        3.90055
C         -5.79680      -11.91878        3.26981
C         -5.78885      -11.81984        1.85147
C         -5.19146      -10.67630        1.13560
N         -5.27594      -10.92977       -0.18080
O         -5.97917      -12.10779       -0.30391
N         -6.26206      -12.66378        0.92140
C         -6.38288      -13.07379        3.98246
C         -7.04789      -14.18659        3.50201
C         -7.47862      -15.13175        4.51173
C         -7.13465      -14.68294        5.78586
S         -6.29709      -13.17821        5.69161
C         -7.46929      -15.43583        6.92512
S         -7.08147      -14.82653        8.56210
C         -5.45263      -15.58762        8.77673
C         -8.15259      -16.66747        6.82780
C         -8.49510      -17.11983        5.54896
C         -8.15759      -16.36580        4.41225
S         -8.57916      -16.96037        2.77994
C         -7.06006      -17.88346        2.43174
S         -9.33057      -18.63823        5.63433
C         -9.23097      -18.70329        7.32668
C         -8.58647      -17.60526        7.83851
H         -3.75365        2.47335        2.88790
H         -5.55999       -2.84384        1.08188
H         -5.22671       -3.31289        2.74804
H         -4.92583       -4.47963        1.43659
H          0.40992       -4.74793        0.07603
H         -0.29562       -5.96379       -1.01054
H          0.17556       -6.44259        0.60472
H         -4.17085       -8.91722        3.82752
H         -5.09038      -10.78893        4.98868
H         -7.24154      -14.34952        2.44903
H         -5.10403      -15.39777        9.79563
H         -4.73174      -15.15658        8.07726
H         -5.50389      -16.66913        8.62540
H         -7.15364      -18.37943        1.46230
H         -6.88512      -18.64548        3.19619
H         -6.20191      -17.20679        2.39520
H         -9.64968      -19.53910        7.87084
H         -8.42800      -17.47188        8.90214
