76

C         -9.13525       -6.32363        3.96825
N         -8.92976       -7.34248        3.09864
N         -7.79734       -7.40151        2.21383
C         -6.82430       -6.44761        2.16712
C         -7.00446       -5.37304        3.05622
C         -8.15915       -5.32060        3.94752
N         -8.08267       -4.19825        4.67401
O         -6.92805       -3.55891        4.26153
N         -6.27182       -4.26879        3.27247
C         -5.71775       -6.58046        1.23158
C         -4.39555       -6.12766        1.31370
C         -3.66192       -6.46462        0.15196
C         -4.44702       -7.14686       -0.74756
S         -6.00958       -7.41460       -0.26908
C         -3.68883       -7.42821       -1.89796
C         -2.42260       -6.92199       -1.73959
C         -2.31842       -6.30036       -0.41763
C         -1.23623       -5.72668        0.14421
C          0.01096       -5.64935       -0.53378
N          1.03150       -5.58369       -1.08642
C         -1.28471       -5.17865        1.45424
N         -1.33100       -4.73586        2.52593
C         -1.63721       -7.13762       -2.89237
C         -2.35379       -7.79890       -3.90367
S         -3.97146       -8.19359       -3.33411
C         -1.93678       -8.16255       -5.23791
C         -2.85368       -8.19046       -6.22704
C         -2.51678       -8.51452       -7.58169
C         -1.14497       -8.80103       -8.00635
C         -0.09917       -8.83040       -7.18299
S         -0.22253       -8.51389       -5.47478
C         -1.19937       -9.03599       -9.39465
C         -2.49665       -8.91267       -9.83167
C         -2.64660       -9.13898      -11.20795
C         -1.41059       -9.42802      -11.77061
S         -0.12025       -9.42400      -10.60712
C         -3.31232       -8.59666       -8.68508
C         -4.73620       -8.38761       -8.74826
C         -5.63611       -9.14393       -8.09808
C         -7.03843       -8.91732       -8.23305
C         -7.73267       -7.95520       -8.97561
C         -9.12801       -8.08997       -8.84021
C         -9.44521       -9.13650       -8.00886
S         -8.14915       -9.96240       -7.38366
C        -10.84598       -9.22604       -7.90689
C        -11.42243       -8.23754       -8.67303
C        -10.36009       -7.45485       -9.31546
C        -10.47873       -6.40125      -10.14772
C        -11.75072       -5.88994      -10.52309
N        -12.79198       -5.47465      -10.82261
C         -9.33981       -5.74457      -10.69211
N         -8.40463       -5.21366      -11.13212
C        -12.83490       -8.28919       -8.59546
C        -13.25848       -9.32590       -7.75568
S        -11.90711      -10.20876       -7.10295
C        -14.59548       -9.75446       -7.37715
N        -14.80404      -10.33704       -6.16178
N        -16.08528      -10.80875       -5.71314
C        -17.20863      -10.71986       -6.46563
C        -17.03608      -10.12685       -7.72183
C        -15.74024       -9.64105       -8.18410
N        -15.90759       -9.14129       -9.41885
O        -17.24869       -9.29734       -9.71815
N        -17.93999       -9.90085       -8.68365
H        -10.00868       -6.34650        4.60109
H         -4.01489       -5.58699        2.17265
H         -0.61069       -6.81791       -3.03148
H         -3.89656       -7.95190       -6.04692
H          0.89034       -9.06506       -7.56183
H         -3.57167       -9.10312      -11.76865
H         -1.18699       -9.64653      -12.80569
H         -5.03737       -7.57441       -9.40214
H         -5.30040       -9.96650       -7.46665
H         -7.22366       -7.21221       -9.57474
H        -13.52783       -7.62178       -9.09623
H        -18.13513      -11.09978       -6.06449
