83

C         -3.81223        0.55783       -7.07086
C         -3.07041        0.00817       -8.12249
C         -2.26159       -1.11657       -7.92097
C         -2.15331       -1.69886       -6.65759
C         -2.85054       -1.12942       -5.60028
C         -3.70886       -0.00872       -5.80525
C         -4.42439        0.28791       -4.51359
C         -5.06893        1.42429       -4.15915
C         -5.17408        2.54627       -5.02893
N         -5.25701        3.46631       -5.73240
C         -5.62022        1.59851       -2.86153
N         -6.08854        1.74698       -1.80662
C         -4.15053       -0.89312       -3.64660
C         -2.89198       -1.47887       -4.15041
C         -1.82450       -1.85887       -3.41558
C         -1.74169       -1.60393       -2.01630
N         -1.56266       -1.32813       -0.90245
C         -0.63129       -2.34785       -4.00933
N          0.33793       -2.76587       -4.48803
C         -5.08157       -1.53465       -2.90562
C         -5.02230       -2.94489       -2.45706
C         -4.66156       -3.37211       -1.17223
C         -4.62900       -4.76399       -0.79392
N         -4.22573       -5.09702        0.45973
C         -3.85976       -4.11560        1.30708
C         -3.90317       -2.79878        0.93676
N         -4.32189       -2.41816       -0.28843
C         -4.99838       -5.80005       -1.69310
C         -5.40860       -5.39879       -3.00098
C         -5.42168       -3.94489       -3.38330
N         -5.83601       -3.73369       -4.64630
S         -6.17752       -5.21264       -5.29931
N         -5.80751       -6.18228       -4.01972
C         -4.97710       -7.23971       -1.33185
N         -4.53259       -7.66272       -0.08558
C         -4.64660       -9.01755       -0.00255
C         -4.44796      -10.11264        0.86967
C         -4.83275      -11.22748        0.13960
N         -5.26389      -10.82516       -1.10498
C         -5.13631       -9.46823       -1.17577
C         -5.35228       -8.37585       -2.04361
C         -4.89030      -12.59563        0.50140
C         -4.73566      -13.59123       -0.38598
C         -4.78798      -14.99274        0.00755
N         -4.48477      -15.37593        1.27626
N         -4.54601      -16.72629        1.73041
C         -4.90026      -17.76582        0.93444
C         -5.23931      -17.45368       -0.40199
C         -5.17961      -16.02221       -0.88355
N         -5.55620      -15.89340       -2.17138
S         -5.90699      -17.41662       -2.72602
N         -5.63949      -18.31277       -1.35808
C         -5.04132      -19.10005        1.49552
C         -4.34042      -19.62447        2.51253
C         -4.99377      -20.78233        3.26112
O         -5.87048      -21.51604        2.84486
C         -4.37508      -20.70169        4.54803
C         -3.38979      -19.75283        4.63858
C         -3.19461      -19.14264        3.33925
C         -2.10025      -18.45833        2.93052
C         -1.85532      -18.15171        1.56076
N         -1.65572      -17.92718        0.43919
C         -1.07817      -18.06633        3.84065
N         -0.25448      -17.73689        4.58891
C         -2.86357      -19.66069        5.94232
C         -3.48802      -20.56956        6.78526
S         -4.69352      -21.51219        5.97693
H         -4.45839        1.40045       -7.29153
H         -3.13666        0.44780       -9.11658
H         -1.71465       -1.54377       -8.75958
H         -1.53682       -2.58397       -6.53958
H         -6.06787       -1.10192       -2.74779
H         -3.52743       -4.42815        2.29059
H         -3.58503       -2.00617        1.60423
H         -4.19514       -7.06320        0.65987
H         -4.07776      -10.09823        1.88558
H         -5.64378      -11.38657       -1.85571
H         -5.74430       -8.43129       -3.04844
H         -5.04733      -12.81523        1.55647
H         -4.55666      -13.40265       -1.43982
H         -5.90161      -19.64490        1.10389
H         -2.09044      -18.98591        6.29043
H         -3.30465      -20.72911        7.83914
