87

C         -7.38373        2.37504        3.50503
C         -7.45334        2.22041        4.89274
C         -6.81797        1.14795        5.52644
C         -6.08409        0.21886        4.78761
C         -5.97454        0.38844        3.41312
C         -6.64371        1.46374        2.75891
C         -6.45101        1.32027        1.27491
C         -6.62158        2.27431        0.33061
C         -7.08486        3.58751        0.63105
N         -7.46736        4.65889        0.86736
C         -6.28625        2.05796       -1.03767
N         -6.02320        1.87783       -2.15321
C         -5.90323       -0.05825        1.09030
C         -5.27301       -0.43041        2.38102
C         -4.13632       -1.14641        2.55764
C         -3.37848       -1.63123        1.45145
N         -2.76625       -2.00251        0.53538
C         -3.55566       -1.36823        3.83890
N         -3.08177       -1.55293        4.87932
C         -6.24564       -0.88391        0.07820
C         -6.05676       -2.33513       -0.02248
N         -6.06158       -3.13765        1.07175
N         -5.92190       -4.57350        1.01063
C         -5.77072       -5.27680       -0.14784
C         -5.76131       -4.49677       -1.34005
C         -5.92058       -2.98975       -1.26965
N         -5.92353       -2.40365       -2.48182
S         -5.69595       -3.60079       -3.59884
N         -5.64707       -4.92435       -2.61306
C         -5.68566       -6.73997       -0.08371
S         -4.76104       -7.57905       -1.24746
C         -5.03960       -9.12847       -0.57689
C         -5.86954       -9.01734        0.53611
C         -6.24393       -7.63782        0.81975
C         -7.13128       -7.28368        1.98954
C         -7.89713       -8.49151        2.53170
C         -6.96770       -9.69438        2.72550
C         -7.71552      -10.85551        3.34583
O         -8.90855      -10.83331        3.63209
C         -6.38792      -10.15616        1.38032
C         -4.45103      -10.30523       -1.23344
N         -5.10683      -11.50050       -1.16845
N         -4.63412      -12.71816       -1.79122
C         -3.48623      -12.79580       -2.50984
C         -2.75712      -11.59236       -2.64721
C         -3.23208      -10.32029       -1.97556
N         -2.36715       -9.30634       -2.17532
S         -1.14695       -9.85778       -3.14073
N         -1.61917      -11.42768       -3.34829
C         -3.03722      -14.03641       -3.14481
C         -3.25419      -15.30925       -2.75928
C         -3.07187      -16.48508       -3.65845
C         -2.02518      -16.74131       -4.47962
C         -0.91654      -15.85483       -4.58538
N         -0.01253      -15.12893       -4.68045
C         -1.91955      -17.93984       -5.24146
N         -1.83229      -18.91028       -5.87030
C         -4.23134      -17.38578       -3.34502
C         -4.84367      -16.94002       -2.13793
C         -6.00716      -17.53809       -1.66984
C         -6.54130      -18.61474       -2.37923
C         -5.93272      -19.06735       -3.55488
C         -4.78468      -18.44504       -4.05358
C         -4.06201      -15.78293       -1.61147
C         -3.92036      -15.43017       -0.31091
C         -4.67154      -16.03432        0.73594
N         -5.28274      -16.52288        1.59283
C         -2.90605      -14.51832        0.10626
N         -2.06329      -13.79049        0.43234
H         -7.93571        3.19586        3.06095
H         -8.02674        2.93072        5.48617
H         -6.90723        1.02997        6.60488
H         -5.63887       -0.62144        5.31027
H         -6.80197       -0.49920       -0.77467
H         -7.85865       -6.51458        1.70475
H         -6.50383       -6.86937        2.78835
H         -8.70291       -8.76291        1.83554
H         -8.38589       -8.22445        3.47729
H         -6.15791       -9.42106        3.41574
H         -7.11129      -11.75578        3.55179
H         -7.17171      -10.67052        0.80907
H         -5.58878      -10.88310        1.56713
H         -2.52017      -13.83619       -4.08193
H         -6.53169      -17.18833       -0.78647
H         -7.44880      -19.09830       -2.02227
H         -6.37213      -19.90185       -4.09911
H         -4.38190      -18.80145       -4.99506
