114

C         -6.47490        3.41468        2.18078
C         -6.39822        3.64880        3.55730
C         -5.67993        2.78581        4.39347
C         -4.97917        1.70157        3.86459
C         -5.00154        1.50146        2.49112
C         -5.79400        2.32882        1.64416
C         -5.77802        1.73855        0.26448
C         -6.12789        2.34725       -0.90165
C         -6.64484        3.67103       -0.95653
N         -7.07328        4.74836       -1.01300
C         -5.94753        1.70711       -2.16027
N         -5.81728        1.16724       -3.17895
C         -5.16454        0.38253        0.42715
C         -4.33134        0.47838        1.63959
C         -3.08173       -0.00341        1.82017
C         -2.37791       -0.63468        0.75418
N         -1.78948       -1.10228       -0.12917
C         -2.36493        0.16733        3.03877
N         -1.80229        0.27958        4.04600
C         -5.63001       -0.73572       -0.17781
C         -5.40461       -2.19544       -0.00588
C         -5.10143       -2.84832        1.23964
C         -4.90825       -4.39541        1.33847
N         -4.54248       -4.76576        2.57902
S         -4.59338       -3.43307        3.54528
N         -4.99227       -2.26496        2.44661
C         -5.11652       -5.27009        0.21144
C         -5.51796       -4.57556       -0.96535
C         -5.93226       -5.17626       -2.13505
S         -6.32321       -4.05650       -3.36712
C         -6.00360       -2.72683       -2.34187
C         -5.63167       -3.11226       -1.07055
C         -4.97382       -6.73398        0.35693
C         -5.15074       -7.54347        1.46821
C         -4.91566       -8.95737        1.24384
C         -4.85051      -10.07634        2.11276
C         -4.78875       -9.87999        3.58244
C         -5.42362      -10.57477        4.60331
C         -5.02508      -10.15285        5.90669
C         -4.13876       -9.10039        5.86834
S         -3.71875       -8.70831        4.25923
C         -3.51394       -8.35786        7.00233
Cl        -5.60437      -10.91246        7.32813
C         -4.77998      -11.38433        1.58103
C         -4.91628      -11.61750        0.20840
C         -4.86033      -10.49583       -0.65957
C         -4.77345       -9.19328       -0.12499
S         -4.37856       -7.70784       -0.91368
C         -4.89760      -10.67594       -2.13361
C         -5.53134       -9.90629       -3.10043
C         -5.39577      -10.42261       -4.42098
C         -4.72582      -11.62381       -4.43624
S         -4.01600      -11.93697       -2.91231
C         -4.53771      -12.59537       -5.55152
Cl        -6.08027       -9.63260       -5.77522
C         -5.12202      -13.03279       -0.03114
C         -4.79255      -13.85092        1.03082
S         -4.44824      -12.87316        2.39074
C         -4.67475      -15.31733        1.11321
C         -5.07147      -16.04754        2.29650
C         -4.88131      -17.57842        2.41198
N         -5.38607      -18.07457        3.55048
S         -5.91461      -16.79166        4.45338
N         -5.63552      -15.54362        3.40875
C         -4.24926      -18.33680        1.38594
C         -3.97044      -17.60518        0.21491
C         -3.51322      -18.18622       -0.94681
S         -3.28828      -17.03257       -2.19099
C         -3.77031      -15.73731       -1.17252
C         -4.16841      -16.15732        0.07718
C         -4.00909      -19.77808        1.52154
C         -2.89215      -20.37787        2.00297
C         -2.52423      -21.80145        1.72951
C         -3.33755      -22.88362        1.76844
C         -4.72934      -22.77751        2.05698
N         -5.86918      -22.69534        2.25277
C         -2.87285      -24.21246        1.55756
N         -2.50279      -25.29872        1.38145
C         -1.03508      -21.78129        1.48851
C         -0.53588      -20.48251        1.80261
C          0.79365      -20.15499        1.56599
C          1.66008      -21.13754        1.09359
C          1.19148      -22.42598        0.82790
C         -0.16013      -22.74731        1.00119
C         -1.64583      -19.69886        2.42357
C         -1.44880      -18.84744        3.46720
C         -0.16960      -18.30292        3.78585
N          0.86119      -17.83459        4.03497
C         -2.42736      -18.59390        4.46646
N         -3.09191      -18.40410        5.39222
H         -7.08681        4.08437        1.58667
H         -6.92565        4.49752        3.98928
H         -5.67281        2.95981        5.46780
H         -4.45538        1.03252        4.53952
H         -6.40240       -0.57129       -0.92804
H         -6.04476       -6.21961       -2.38264
H         -6.13931       -1.73794       -2.75634
H         -5.43166       -7.14614        2.43629
H         -6.11904      -11.38865        4.43328
H         -4.24417       -8.16970        7.79686
H         -3.11939       -7.38504        6.68955
H         -2.68916       -8.94017        7.42550
H         -6.09582       -9.00989       -2.87803
H         -5.15229      -12.33647       -6.41962
H         -4.84407      -13.59985       -5.23553
H         -3.49297      -12.63444       -5.87197
H         -5.41759      -13.43052       -0.99242
H         -3.31037      -19.22740       -1.15961
H         -3.74256      -14.74674       -1.59635
H         -4.80245      -20.35673        1.05245
H          1.19273      -19.16053        1.74178
H          2.71106      -20.89983        0.93593
H          1.88521      -23.18403        0.46777
H         -0.46894      -23.75272        0.73926
