77

C        -11.48908        0.29516        4.56352
C        -12.40775       -0.39848        5.35762
C        -12.08106       -1.63906        5.91557
C        -10.82162       -2.20239        5.70802
C         -9.88890       -1.49799        4.95629
C        -10.22540       -0.24904        4.36047
C         -9.07308        0.20266        3.50687
C         -8.82863        1.45347        3.05067
C         -9.70730        2.54727        3.29088
N        -10.42237        3.44278        3.47845
C         -7.63260        1.78369        2.35103
N         -6.66245        2.04702        1.77142
C         -8.18994       -0.99619        3.38900
C         -8.49139       -1.84384        4.56845
C         -7.60470       -2.55783        5.30379
C         -6.21415       -2.56122        4.99042
N         -5.08240       -2.53053        4.72735
C         -7.96753       -3.23705        6.50075
N         -8.26210       -3.78604        7.47945
C         -7.54843       -1.36222        2.25880
C         -6.99918       -2.67716        1.91460
N         -7.54499       -3.81851        2.40015
N         -7.10728       -5.13689        2.01707
C         -6.11150       -5.39148        1.11786
C         -5.50005       -4.23294        0.56489
C         -5.95643       -2.84480        0.97337
N         -5.27855       -1.86544        0.34594
S         -4.15317       -2.59804       -0.62118
N         -4.49912       -4.18899       -0.33453
C         -5.77390       -6.75039        0.75198
N         -5.28770       -7.02427       -0.48843
N         -4.93974       -8.34301       -0.95813
C         -5.04791       -9.47920       -0.21808
C         -5.55690       -9.28282        1.09228
C         -5.93306       -7.88822        1.58668
N         -6.39334       -7.90546        2.85175
S         -6.36086       -9.47335        3.37321
N         -5.75340      -10.22555        2.03306
C         -4.67593      -10.75651       -0.78655
N         -5.29899      -11.90626       -0.39395
N         -5.01784      -13.21151       -0.93477
C         -4.07969      -13.44502       -1.88426
C         -3.38609      -12.30502       -2.35862
C         -3.69222      -10.92799       -1.79805
N         -2.93449       -9.97165       -2.36656
S         -1.94259      -10.70718       -3.46490
N         -2.42961      -12.28158       -3.30569
C         -3.87150      -14.78861       -2.43607
C         -4.05979      -15.98306       -1.83365
C         -4.21259      -17.27978       -2.56889
C         -3.49442      -17.72218       -3.63001
C         -2.44196      -16.95301       -4.20587
N         -1.59388      -16.32068       -4.68011
C         -3.68680      -19.00494       -4.21925
N         -3.84162      -20.04364       -4.71273
C         -5.26019      -18.04091       -1.80186
C         -5.49168      -17.37852       -0.56287
C         -6.49805      -17.81166        0.29348
C         -7.24079      -18.94170       -0.04950
C         -6.99558      -19.61576       -1.24851
C         -6.01842      -19.15885       -2.13870
C         -4.54985      -16.22378       -0.45187
C         -4.07474      -15.68444        0.69750
C         -4.58175      -16.02761        1.98192
N         -5.00129      -16.29831        3.03051
C         -2.96127      -14.79083        0.70594
N         -2.05016      -14.07373        0.69778
H        -11.81143        1.22783        4.11426
H        -13.39823        0.02076        5.52695
H        -12.82079       -2.17570        6.50706
H        -10.61645       -3.18438        6.12209
H         -7.48268       -0.67436        1.41825
H         -3.62330      -14.74016       -3.49420
H         -6.74862      -17.29308        1.21278
H         -8.02635      -19.29297        0.61713
H         -7.58888      -20.49323       -1.50082
H         -5.90886      -19.69129       -3.07676
