182

C        -14.03969      -11.63508       -6.54975
C        -15.02787      -10.66084       -6.36864
C        -14.71261       -9.40337       -5.83895
C        -13.39576       -9.08030       -5.51834
C        -12.40365      -10.02196       -5.76073
C        -12.72312      -11.32412       -6.23944
C        -11.46550      -12.15349       -6.24685
C        -11.24107      -13.31731       -6.89308
C        -12.24432      -13.97452       -7.67746
N        -13.04346      -14.51856       -8.29781
C         -9.96310      -13.94912       -6.88266
N         -8.92935      -14.47624       -6.84076
C        -10.46429      -11.34266       -5.48148
C        -10.92551       -9.94641       -5.62286
C        -10.19560       -8.86787       -5.99773
C         -8.81402       -8.98004       -6.31680
N         -7.68872       -9.05894       -6.58521
C        -10.76842       -7.58577       -6.15903
N        -11.25737       -6.52603       -6.26686
C         -9.63385      -11.87176       -4.55090
C         -8.86758      -11.27240       -3.43411
C         -8.74161       -9.92380       -3.20975
C         -7.97270       -9.40982       -2.16097
C         -7.46262      -10.15171       -1.10356
C         -7.65065      -11.53402       -1.31266
C         -8.25430      -12.08249       -2.47899
C         -6.77727       -9.52546        0.19438
C         -6.02487      -10.61245        1.13989
C         -6.13866      -10.73075        2.53655
C         -5.69224      -11.82311        3.31293
C         -5.17505      -12.93835        2.69869
C         -4.99645      -12.88626        1.32566
C         -5.34426      -11.72283        0.58091
C         -6.88694       -8.13042        0.45611
C         -6.31027       -7.42881        1.68325
C         -5.56216       -6.24089        1.60503
C         -4.95610       -5.67512        2.73686
C         -5.01504       -6.34073        3.95175
C         -5.88418       -7.41052        4.07561
C         -6.64831       -7.80748        2.97368
C         -7.56520       -7.11263       -0.49157
C         -8.94670       -6.86791       -0.46455
C         -9.56378       -6.00648       -1.41580
C         -8.83896       -5.31679       -2.41483
C         -7.44863       -5.52960       -2.40004
C         -6.82517       -6.39946       -1.46434
C         -9.50812       -4.42208       -3.42317
C        -10.62180       -3.63749       -3.09530
C        -11.24567       -2.77743       -4.03290
C        -10.83673       -2.67291       -5.37888
C         -9.77559       -3.51626       -5.72266
C         -9.09194       -4.31909       -4.76354
C        -11.60876       -1.72875       -6.33044
C        -13.09064       -1.60516       -6.02068
C        -13.98450       -2.55876       -6.54777
C        -15.36731       -2.41215       -6.38265
C        -15.86943       -1.36095       -5.61901
C        -14.98972       -0.46885       -5.00540
C        -13.60841       -0.57976       -5.21457
C        -11.09461       -1.01369       -7.41411
C        -11.94290        0.02105       -8.21665
C        -11.34152        1.21282       -8.67232
C        -12.07222        2.21385       -9.34342
C        -13.43797        2.06959       -9.55546
C        -14.04748        0.88408       -9.18239
C        -13.29147       -0.13668       -8.58275
C         -9.65513       -1.22265       -7.89416
C         -9.43573       -1.50187       -9.24936
C         -8.15632       -1.83719       -9.74944
C         -7.01520       -1.95308       -8.93027
C         -7.23206       -1.58229       -7.58613
C         -8.50777       -1.17530       -7.09215
C         -5.67876       -2.41505       -9.47936
C         -5.40226       -2.42310      -10.85715
C         -4.11883       -2.70833      -11.38942
C         -3.03333       -3.12278      -10.59886
C         -3.36345       -3.31168       -9.24687
C         -4.61394       -2.88726       -8.68992
C         -1.63669       -3.36139      -11.27622
C         -1.69559       -3.94858      -12.71166
C         -2.63966       -4.95538      -13.01008
C         -2.70018       -5.57256      -14.26819
C         -1.76656       -5.25342      -15.24489
C         -0.84981       -4.23899      -14.99833
C         -0.87176       -3.54285      -13.77785
C         -0.39899       -3.07668      -10.67862
C          0.95295       -3.30624      -11.39126
C          1.95789       -2.31247      -11.30530
C          3.21950       -2.47903      -11.89078
C          3.48413       -3.61102      -12.64990
C          2.51970       -4.61031      -12.74470
C          1.29764       -4.48945      -12.06381
C         -0.24630       -2.52109       -9.25676
C          0.86609       -2.88143       -8.46369
C          1.03691       -2.40974       -7.15303
C          0.02831       -1.67573       -6.53132
C         -1.09015       -1.36411       -7.30185
C         -1.13167       -1.62183       -8.67665
C          0.17471       -1.34207       -5.09856
C         -0.44839       -0.41946       -4.33466
C         -0.42396       -0.43695       -2.84637
C          0.67134       -0.53209       -2.05621
C          1.97983       -0.68162       -2.59659
N          3.04861       -0.83233       -3.04054
C          0.60545       -0.41448       -0.63526
N          0.57346       -0.33223        0.51858
C         -1.83561       -0.14513       -2.43522
C         -2.54334        0.34341       -3.57148
C         -3.91079        0.57774       -3.50842
C         -4.56919        0.37962       -2.29381
C         -3.87155       -0.07258       -1.16717
C         -2.50371       -0.35525       -1.23557
C         -1.57756        0.45996       -4.70383
C         -1.61861        1.36681       -5.70796
C         -2.76381        2.16962       -5.96613
N         -3.71427        2.79590       -6.19244
C         -0.49024        1.60607       -6.54870
N          0.42412        1.82469       -7.22839
H        -14.34623      -12.60718       -6.91923
H        -16.06056      -10.88703       -6.62782
H        -15.50161       -8.67124       -5.67961
H        -13.18417       -8.10612       -5.08752
H         -9.56736      -12.95853       -4.49832
H         -9.22125       -9.17077       -3.80459
H         -7.84338       -8.35669       -2.27082
H         -7.34358      -12.27162       -0.57990
H         -8.26617      -13.16626       -2.58385
H         -6.63132      -10.01942        3.15252
H         -5.81402      -11.79679        4.39507
H         -4.92502      -13.82110        3.28223
H         -4.60911      -13.76844        0.81951
H         -5.14796      -11.76867       -0.48840
H         -5.45386       -5.70170        0.67010
H         -4.41991       -4.73362        2.65880
H         -4.43939       -5.99641        4.80534
H         -5.98238       -7.93285        5.02333
H         -7.50116       -8.45985        3.12716
H         -9.57316       -7.38495        0.25892
H        -10.64853       -5.91096       -1.37762
H         -6.81589       -5.02747       -3.13069
H         -5.75026       -6.55631       -1.54442
H        -11.03502       -3.66134       -2.08917
H        -12.08763       -2.19528       -3.66449
H         -9.44194       -3.58673       -6.75459
H         -8.23825       -4.89254       -5.11923
H        -13.60747       -3.37505       -7.16113
H        -16.05057       -3.10250       -6.87153
H        -16.94379       -1.23595       -5.50250
H        -15.38278        0.32654       -4.37664
H        -12.94050        0.13638       -4.74377
H        -10.27888        1.38787       -8.52091
H        -11.57141        3.11478       -9.68975
H        -14.01769        2.86020      -10.02524
H        -15.11160        0.73692       -9.35535
H        -13.81829       -1.06259       -8.41153
H        -10.26741       -1.47897       -9.95281
H         -8.10211       -2.03329      -10.81648
H         -6.41586       -1.61236       -6.86801
H         -8.59648       -0.90102       -6.04194
H         -6.17337       -2.18169      -11.58327
H         -4.00681       -2.60465      -12.46779
H         -2.62635       -3.72379       -8.55964
H         -4.71641       -2.94500       -7.60787
H         -3.36397       -5.27315      -12.26286
H         -3.46435       -6.31877      -14.47146
H         -1.75838       -5.78525      -16.19313
H         -0.09981       -3.99441      -15.74751
H         -0.15980       -2.72991      -13.65682
H          1.78509       -1.39890      -10.73732
H          3.98725       -1.72028      -11.75611
H          4.43991       -3.71824      -13.15705
H          2.71308       -5.48916      -13.35500
H          0.59133       -5.31321      -12.13044
H          1.65288       -3.52059       -8.86211
H          1.95729       -2.65841       -6.62660
H         -1.97853       -0.92186       -6.87107
H         -1.94630       -1.18906       -9.24984
H          0.86501       -2.03231       -4.61047
H         -4.49263        0.88860       -4.36991
H         -5.63925        0.56860       -2.22445
H         -4.40815       -0.22469       -0.23196
H         -2.01668       -0.75286       -0.35149
