96

C         -6.84982        2.79052       -2.11212
C         -5.65678        3.50505       -1.95862
C         -4.45870        2.84653       -1.66302
C         -4.42141        1.45697       -1.54993
C         -5.59362        0.73789       -1.74642
C         -6.82793        1.40453       -1.99768
C         -7.93612        0.38375       -1.99990
C         -9.19797        0.53853       -2.46937
C         -9.67916        1.75874       -3.02234
N        -10.08157        2.75719       -3.47313
C        -10.12403       -0.54540       -2.48695
N        -10.87794       -1.42705       -2.48129
C         -7.30616       -0.86725       -1.46448
C         -5.85154       -0.73089       -1.72585
C         -5.00207       -1.67631       -2.19426
C         -5.46747       -2.95201       -2.63148
N         -5.82907       -3.96171       -3.07431
C         -3.62913       -1.41258       -2.46763
N         -2.50628       -1.19956       -2.67190
C         -7.88652       -1.69169       -0.56016
C         -7.16433       -2.58649        0.27838
C         -6.57349       -2.26166        1.46973
S         -6.55056       -0.71992        2.41136
C         -5.38713       -1.52744        3.44939
C         -4.78564       -0.73640        4.56955
C         -5.11365       -2.86395        3.12147
C         -5.84289       -3.33580        1.98834
C         -5.93262       -4.53989        1.34669
S         -7.07812       -4.28128        0.04554
C         -5.36382       -5.84400        1.60170
C         -5.16129       -6.22075        2.88181
C         -4.61425       -7.50479        3.23617
C         -4.25172       -8.51423        2.23623
C         -4.37529       -8.33811        0.92304
S         -4.96326       -6.86283        0.21170
C         -3.71833       -9.61224        2.94362
C         -3.71584       -9.33227        4.28811
C         -3.16304      -10.35442        5.07539
C         -2.76950      -11.40798        4.26132
S         -3.07559      -11.10898        2.57629
C         -4.29191       -8.02132        4.45688
C         -4.36692       -7.34860        5.72330
C         -5.48425       -6.85180        6.28008
C         -5.43397       -6.12918        7.50030
C         -6.33597       -5.18825        7.92287
S         -7.78496       -4.46168        7.12501
C         -7.95283       -3.50396        8.59116
C         -9.09615       -2.53696        8.67555
C         -6.98469       -3.74387        9.58130
C         -6.02428       -4.72626        9.20653
C         -4.94236       -5.27234        9.82949
S         -4.15203       -6.23641        8.63457
C         -4.36824       -5.04832       11.11802
C         -3.70597       -5.95558       11.87465
C         -2.80965       -5.58436       13.00653
C         -3.07681       -4.70180       13.99597
C         -4.29686       -3.97100       14.04319
N         -5.27784       -3.36033       14.04858
C         -2.20221       -4.49039       15.09842
N         -1.49206       -4.31091       15.99480
C         -1.63738       -6.52072       12.90406
C         -1.95909       -7.56459       11.98859
C         -1.02976       -8.55612       11.69407
C          0.20675       -8.53790       12.34134
C          0.52459       -7.51678       13.24135
C         -0.38604       -6.49101       13.51009
C         -3.36948       -7.36492       11.53853
C         -4.22687       -8.34008       11.15313
C         -3.79778       -9.62171       10.70964
N         -3.44300      -10.64339       10.28751
C         -5.63835       -8.14519       11.20955
N         -6.78492       -8.01255       11.31427
H         -7.75602        3.35770       -2.29226
H         -5.66323        4.59041       -2.04609
H         -3.54847        3.42402       -1.51248
H         -3.48098        0.98036       -1.29351
H         -8.94035       -1.59533       -0.31269
H         -4.55180        0.28366        4.24711
H         -3.85106       -1.19549        4.90896
H         -5.46999       -0.68566        5.42272
H         -4.40263       -3.45292        3.68949
H         -5.42719       -5.56957        3.70667
H         -4.07879       -9.12303        0.23467
H         -3.04976      -10.34929        6.15233
H         -2.31374      -12.34235        4.56026
H         -3.39693       -7.25167        6.20593
H         -6.44708       -6.98611        5.78951
H         -9.76741       -2.60598        7.81297
H         -8.72234       -1.50887        8.72836
H         -9.68980       -2.73280        9.57466
H         -6.98886       -3.21574       10.52849
H         -4.42820       -4.01012       11.43549
H         -1.22000       -9.35306       10.98380
H          0.93039       -9.32708       12.14388
H          1.49516       -7.51955       13.73470
H         -0.07574       -5.70399       14.18821
