122

C         -1.62461        2.41198        1.12145
C         -1.42119        2.99899       -0.13172
C         -2.14597        2.57535       -1.25214
C         -3.12163        1.58720       -1.13527
C         -3.37196        1.05064        0.11973
C         -2.59322        1.42589        1.25104
C         -2.97622        0.54337        2.40743
C         -2.72366        0.74613        3.72055
C         -1.97799        1.86020        4.19483
N         -1.36128        2.75454        4.60037
C         -3.25178       -0.10904        4.72907
N         -3.67713       -0.81961        5.54160
C         -3.80839       -0.54369        1.79925
C         -4.36948        0.03984        0.56064
C         -5.64630       -0.04216        0.11557
C         -6.64611       -0.73685        0.85747
N         -7.47395       -1.26406        1.47634
C         -6.10230        0.67304       -1.02954
N         -6.46228        1.25774       -1.96555
C         -3.71223       -1.84805        2.13875
C         -4.16979       -2.96627        1.36780
C         -4.31157       -3.13990       -0.01215
C         -4.80193       -4.42270       -0.33505
C         -4.87669       -5.23124        0.77464
S         -4.50967       -4.47194        2.20473
C         -5.23404       -6.53425        0.36112
C         -5.41211       -6.53470       -1.00584
C         -5.18894       -5.18654       -1.52117
C         -5.36148       -4.73369       -2.77955
C         -5.78555       -5.58397       -3.83589
N         -6.13257       -6.27638       -4.70159
C         -5.16035       -3.36221       -3.09550
N         -4.98262       -2.23252       -3.30008
C         -5.73727       -7.81358       -1.49176
C         -5.78109       -8.75650       -0.46048
S         -5.42124       -8.01974        1.07857
C         -6.05031      -10.17525       -0.57734
C         -6.09148      -11.13233        0.41112
C         -6.29991      -12.48835       -0.06055
C         -6.42523      -13.71825        0.63849
C         -6.38668      -13.69696        2.13191
C         -5.54373      -12.99813        2.98795
C         -5.81628      -13.21761        4.37110
C         -6.80157      -14.15749        4.56317
S         -7.55524      -14.54987        3.08005
C         -7.27721      -14.77564        5.83688
Cl        -4.95535      -12.40771        5.60918
C         -6.56875      -14.93123       -0.08039
C         -6.54283      -14.95900       -1.48544
C         -6.42444      -13.72781       -2.18473
C         -6.36455      -12.51077       -1.46161
S         -6.42769      -10.88911       -2.06765
C         -6.41787      -13.73603       -3.68169
C         -7.13084      -14.52344       -4.57851
C         -6.89738      -14.19565       -5.94774
C         -6.07694      -13.10084       -6.08388
S         -5.34987      -12.71376       -4.58769
C         -5.77613      -12.30087       -7.30855
Cl        -7.64794      -15.04461       -7.22987
C         -6.63658      -16.32252       -1.96381
C         -6.88115      -17.25682       -0.98477
S         -6.75844      -16.53890        0.54138
C         -7.16291      -18.66369       -1.14591
C         -6.93519      -19.68962       -0.22653
C         -7.28766      -20.94039       -0.76793
C         -7.80363      -20.81942       -2.03974
S         -7.88000      -19.26594       -2.61434
C         -8.05246      -22.10720       -2.55715
C         -7.65589      -23.03381       -1.62299
C         -7.22821      -22.35201       -0.40387
C         -6.92600      -22.90259        0.78784
C         -6.98233      -24.31101        0.97931
N         -7.04263      -25.46545        1.08409
C         -6.58900      -22.10944        1.91772
N         -6.31632      -21.46132        2.84093
C         -7.68789      -24.33642       -2.14807
C         -8.27448      -24.37074       -3.41719
S         -8.62120      -22.75045       -3.97799
C         -8.52359      -25.46918       -4.30031
C         -8.76224      -26.73876       -3.90369
C         -8.51621      -27.93051       -4.76643
C         -8.92945      -28.13051       -6.04103
C         -9.68056      -27.14343       -6.74520
N        -10.27952      -26.32963       -7.31368
C         -8.70943      -29.35000       -6.73546
N         -8.52365      -30.34607       -7.30480
C         -7.81525      -28.90797       -3.86279
C         -7.96459      -28.46397       -2.51745
C         -7.28160      -29.08151       -1.47882
C         -6.48858      -30.19118       -1.77045
C         -6.36955      -30.65905       -3.08524
C         -7.01739      -30.01053       -4.14190
C         -8.82986      -27.25371       -2.51801
C         -9.67621      -26.85647       -1.53886
C         -9.73049      -27.49633       -0.26845
N         -9.78194      -28.01609        0.76740
C        -10.62979      -25.81619       -1.74964
N        -11.40744      -24.97096       -1.91457
H         -1.00001        2.74183        1.94373
H         -0.67304        3.78181       -0.24342
H         -1.94556        3.02059       -2.22474
H         -3.64839        1.25646       -2.02552
H         -3.15472       -2.12647        3.03097
H         -4.05011       -2.37677       -0.73243
H         -5.91879       -8.06876       -2.52956
H         -5.95774      -10.87426        1.45215
H         -4.75420      -12.34064        2.64721
H         -6.44569      -14.91387        6.53791
H         -7.71667      -15.76551        5.67032
H         -8.02684      -14.14028        6.31746
H         -7.82600      -15.29711       -4.28034
H         -5.55636      -12.94819       -8.16296
H         -4.92661      -11.62425       -7.17174
H         -6.64780      -11.68665       -7.56717
H         -6.57151      -16.60200       -3.00672
H         -6.49715      -19.51708        0.74938
H         -7.30280      -25.21571       -1.64997
H         -8.38457      -25.24392       -5.35633
H         -7.31588      -28.71380       -0.45732
H         -5.94406      -30.68840       -0.96961
H         -5.74052      -31.52413       -3.28909
H         -6.84575      -30.37612       -5.14847
