79

C         -4.88806        2.44707        3.51681
C         -5.15631        2.32810        4.88489
C         -4.72719        1.20869        5.61276
C         -3.98743        0.19881        4.99906
C         -3.67976        0.33759        3.65500
C         -4.15672        1.44550        2.89498
C         -3.85268        1.18906        1.44597
C         -3.78169        2.08578        0.43633
C         -4.01191        3.47590        0.63574
N         -4.19530        4.60898        0.80324
C         -3.38980        1.70014       -0.87458
N         -3.08566        1.36814       -1.94871
C         -3.50669       -0.25895        1.39628
C         -2.96403       -0.57562        2.72995
C         -1.86664       -1.31794        3.00185
C         -1.07748       -1.87522        1.95225
N         -0.41641       -2.29425        1.09546
C         -1.37009       -1.48086        4.32492
N         -0.97306       -1.61471        5.40674
C         -4.02328       -1.12771        0.50285
C         -4.14544       -2.54244        0.70235
C         -4.30568       -3.30503        1.86876
C         -4.45494       -4.67857        1.58703
C         -4.52572       -4.89796        0.23309
S         -4.26718       -3.56170       -0.71288
C         -4.87152       -6.24482        0.01176
C         -4.99103       -6.88325        1.22373
C         -4.66872       -5.94429        2.29653
C         -4.52987       -6.19106        3.61449
C         -4.71563       -7.49004        4.16319
N         -4.86272       -8.55016        4.61433
C         -4.13401       -5.16063        4.51004
N         -3.80907       -4.28459        5.20275
C         -5.41869       -8.21742        1.06242
C         -5.62725       -8.53132       -0.28677
S         -5.24657       -7.16807       -1.30939
C         -6.10731       -9.76071       -0.91514
N         -6.22359       -9.82561       -2.26817
N         -6.70175      -10.97766       -2.98238
C         -7.09480      -12.13826       -2.38393
C         -7.00260      -12.14198       -0.96181
C         -6.49815      -10.92399       -0.21130
N         -6.48774      -11.10999        1.12309
S         -7.03465      -12.63814        1.41829
N         -7.32406      -13.14322       -0.11966
C         -7.56777      -13.25246       -3.19842
C         -7.66155      -13.20708       -4.58712
N         -8.10600      -14.24713       -5.34744
C         -8.46166      -15.37147       -4.67984
C         -8.37234      -15.42402       -3.29809
N         -7.92950      -14.38655       -2.54863
C         -8.93895      -16.52258       -5.45137
C         -8.55623      -16.82468       -6.69886
C         -9.23158      -18.03332       -7.05910
C        -10.03090      -18.32230       -5.89113
N         -9.86061      -17.45152       -4.92427
O        -10.83185      -19.39253       -5.91179
C        -11.63747      -19.56260       -4.74230
C         -8.82447      -18.35079       -8.28789
N         -7.90728      -17.43701       -8.82048
C         -7.76399      -16.53498       -7.87517
O         -6.99854      -15.44264       -7.87378
C         -6.26264      -15.16962       -9.06613
H         -5.29319        3.30024        2.98323
H         -5.73345        3.10185        5.38847
H         -4.98679        1.11894        6.66603
H         -3.70362       -0.67874        5.57289
H         -4.51390       -0.74977       -0.39317
H         -4.35907       -2.87151        2.85848
H         -5.59958       -8.91613        1.87028
H         -7.37774      -12.32482       -5.15473
H         -8.63367      -16.31261       -2.73300
H        -12.11472      -20.54484       -4.79728
H        -12.41901      -18.79676       -4.71315
H        -11.02805      -19.52809       -3.83359
H         -9.13651      -19.21478       -8.86106
H         -6.06567      -14.09395       -9.09614
H         -6.81616      -15.43910       -9.97072
H         -5.30664      -15.69797       -9.02551
