128

C         -9.42456        3.05956        3.32495
C        -10.78788        3.32330        3.07174
C        -11.47234        2.59691        2.09896
C        -10.80296        1.61422        1.36491
C         -9.43513        1.33842        1.61035
C         -8.73767        2.03764        2.58529
C         -7.28473        1.55555        2.57910
C         -6.27297        2.20259        3.23982
C         -6.49223        3.32482        4.13304
N         -6.62965        4.22379        4.85259
C         -4.88263        1.87145        3.09667
N         -3.74872        1.65447        3.02413
C         -7.21915        0.29385        1.66065
C         -8.47761        0.44704        0.87319
C         -8.60596        0.13479       -0.43313
C         -7.45589       -0.29005       -1.18979
N         -6.53617       -0.63156       -1.80365
C         -9.81393        0.38045       -1.17955
N        -10.79243        0.58355       -1.76375
C         -6.23912       -0.76891        1.58593
C         -6.14196       -2.18954        0.78744
C         -7.20804       -3.05484        0.36995
C         -6.91926       -4.38567       -0.01963
C         -7.92240       -5.36287       -0.32300
C         -9.31770       -4.97505       -0.75418
C        -10.47940       -5.70146       -0.51783
C        -11.62083       -5.19669       -1.15018
C        -11.38897       -4.04961       -1.89912
S         -9.75193       -3.65240       -1.73840
C        -12.40723       -3.32033       -2.73085
Cl       -13.17445       -5.99963       -1.01911
C         -7.52035       -6.72247       -0.16838
C         -6.24782       -7.04401        0.32040
C         -5.24114       -6.06346        0.58173
C         -5.58776       -4.69248        0.24871
S         -4.76900       -3.18850        0.51214
C         -4.06195       -6.40459        1.51587
C         -2.74955       -5.92575        1.50936
C         -2.05135       -6.04590        2.71925
C         -2.74806       -6.71628        3.70149
S         -4.25203       -7.13778        3.05297
C         -2.28139       -6.95625        5.10007
Cl        -0.48642       -5.28044        2.95877
C         -6.07513       -8.42289        0.49596
C         -7.12028       -9.25515        0.16676
S         -8.36230       -8.21516       -0.40968
C         -6.90716      -10.76723        0.27158
C         -7.57485      -11.69442       -0.55002
C         -7.27186      -13.08299       -0.46074
C         -6.31309      -13.53899        0.43689
C         -5.62966      -12.66276        1.26463
C         -5.92504      -11.29038        1.18103
C         -6.27592      -15.00034        0.42406
C         -7.27221      -15.43383       -0.41930
C         -7.78542      -14.27228       -1.27665
C         -9.33104      -14.36761       -1.43491
C        -10.04207      -13.29119       -2.26235
C         -6.90158      -14.37497       -2.57613
C         -7.11579      -13.36408       -3.69815
C         -7.65852      -16.79314       -0.42200
C         -6.98910      -17.70677        0.42676
C         -5.85799      -17.26155        1.15060
C         -5.49981      -15.90372        1.15885
C         -7.51994      -19.09556        0.57834
C         -7.36045      -19.81064        1.72157
C         -7.97911      -21.14177        1.98229
C         -8.29401      -21.48798        3.31441
C         -8.92989      -22.70193        3.61287
C         -9.21955      -23.62563        2.59442
C         -8.86881      -23.28878        1.27500
C         -8.28281      -22.07634        0.97480
N         -8.02031      -21.90137       -0.33094
Se        -8.53827      -23.30660       -1.31466
N         -9.10134      -24.06871        0.20528
C         -9.89083      -24.89749        2.92381
C         -9.73232      -26.11098        2.23369
C        -10.53619      -27.10030        2.78109
C        -11.31046      -26.66584        3.80499
S        -11.02354      -25.07059        4.19287
C        -12.20195      -27.71613        4.19276
C        -11.96108      -28.82376        3.43486
C        -10.79115      -28.54172        2.54779
C        -10.04495      -29.37896        1.78393
C         -8.87720      -28.91555        1.06949
N         -7.93696      -28.56998        0.48847
C        -10.28969      -30.79390        1.69882
N        -10.43743      -31.93647        1.59333
C        -12.86093      -29.85937        3.69417
C        -13.79282      -29.48357        4.68044
S        -13.49458      -27.89931        5.22860
H         -8.97102        3.67512        4.08334
H        -11.32582        4.09540        3.61922
H        -12.52172        2.80297        1.89783
H        -11.37490        1.09761        0.62039
H         -5.39717       -0.57897        2.24959
H         -8.23415       -2.92066        0.55022
H        -10.51187       -6.58606        0.09040
H        -13.38872       -3.83896       -2.69263
H        -12.08413       -3.29367       -3.79375
H        -12.54548       -2.28521       -2.35937
H         -2.28075       -5.43512        0.69948
H         -1.28975       -6.48465        5.28072
H         -2.19494       -8.04710        5.26593
H         -3.01482       -6.51097        5.80234
H         -5.16336       -8.86684        0.78809
H         -8.27247      -11.30393       -1.25174
H         -4.89862      -13.03606        1.97502
H         -5.37650      -10.64958        1.85750
H         -9.78343      -14.37175       -0.42071
H         -9.57616      -15.32468       -1.93611
H         -9.91522      -12.27531       -1.87945
H        -11.12845      -13.48484       -2.24928
H         -9.75929      -13.32336       -3.31681
H         -6.93529      -15.40493       -2.99863
H         -5.83992      -14.21087       -2.26593
H         -8.02545      -13.57249       -4.27622
H         -6.28676      -13.46204       -4.42864
H         -7.11294      -12.32711       -3.31205
H         -8.50319      -17.12423       -1.01426
H         -5.27361      -17.95584        1.74026
H         -4.66556      -15.57699        1.76264
H         -8.17281      -19.47490       -0.19809
H         -6.83593      -19.36321        2.55966
H         -8.07957      -20.80618        4.12904
H         -9.17572      -22.92671        4.64495
H         -9.07532      -26.26109        1.39277
H        -12.87467      -30.81567        3.19203
H        -14.60744      -30.09563        5.04102
