94

C         -1.99652        1.89693        3.23434
C         -1.76095        2.64221        2.07409
C         -2.53408        2.44962        0.92090
C         -3.58160        1.52972        0.91037
C         -3.84908        0.82553        2.07464
C         -3.03946        0.98189        3.23787
C         -3.46538       -0.04093        4.25453
C         -3.23794       -0.03633        5.58744
C         -2.49420        0.99178        6.23193
N         -1.88861        1.83115        6.75676
C         -3.79635       -1.02611        6.44757
N         -4.24227       -1.84657        7.13605
C         -4.31740       -0.99302        3.48644
C         -4.87821       -0.20388        2.37109
C         -6.16218       -0.19382        1.94429
C         -7.16331       -0.96314        2.60735
N         -7.99128       -1.54305        3.17700
C         -6.62104        0.68444        0.92173
N         -6.99394        1.39359        0.08243
C         -4.20802       -2.33533        3.57304
C         -4.63586       -3.27629        2.58137
C         -4.73300       -3.17390        1.18788
C         -5.18310       -4.37550        0.60068
C         -5.29812       -5.37555        1.53668
S         -4.99699       -4.90902        3.09926
C         -5.63277       -6.57684        0.87901
C         -5.75094       -6.32998       -0.47101
C         -5.51629       -4.90918       -0.72302
C         -5.64768       -4.23130       -1.88100
C         -6.04802       -4.86890       -3.08822
N         -6.37631       -5.37851       -4.07788
C         -5.43488       -2.82541       -1.93264
N         -5.25516       -1.67833       -1.92347
C         -6.03566       -7.50941       -1.18613
C         -6.12537       -8.61151       -0.32943
S         -5.85854       -8.15920        1.32538
C         -6.34714      -10.01238       -0.69263
C         -6.98030      -10.95697        0.11172
N         -7.16707      -12.25114       -0.26575
C         -6.70077      -12.57431       -1.49716
C         -6.06476      -11.62862       -2.29656
N         -5.88040      -10.33996       -1.92110
C         -6.93873      -13.95700       -1.91625
C         -7.06862      -15.10614       -1.13025
C         -7.36560      -16.23141       -1.92712
C         -7.45965      -15.89600       -3.25910
S         -7.17660      -14.30380       -3.60544
C         -7.91211      -17.01189       -3.98698
C         -8.13204      -18.04395       -3.10851
C         -7.69066      -17.64678       -1.77142
C         -7.52920      -18.43001       -0.68735
C         -7.81781      -19.82166       -0.74253
N         -8.06628      -20.95158       -0.83884
C         -6.99490      -17.92150        0.52777
N         -6.54835      -17.50619        1.51493
C         -8.82796      -19.09711       -3.73043
C         -8.99174      -18.87225       -5.10336
S         -8.33542      -17.31894       -5.55992
C         -9.67771      -19.62637       -6.10735
C         -9.83352      -20.96499       -6.09609
C        -10.95798      -21.66091       -6.78501
C        -11.35985      -21.51189       -8.06652
C        -10.71978      -20.59613       -8.95654
N        -10.20052      -19.83512       -9.66657
C        -12.40095      -22.29839       -8.63782
N        -13.25339      -22.93852       -9.09675
C        -11.46446      -22.64360       -5.76381
C        -10.49644      -22.75378       -4.72303
C        -10.76979      -23.46262       -3.56139
C        -11.99747      -24.11587       -3.45461
C        -12.93903      -24.04407       -4.48933
C        -12.68514      -23.29520       -5.64359
C         -9.32147      -21.91629       -5.08727
C         -8.02918      -22.11959       -4.74725
C         -7.63226      -23.12577       -3.82325
N         -7.30390      -23.94292       -3.06846
C         -6.96769      -21.38160       -5.35355
N         -6.10275      -20.78897       -5.85055
H         -1.33627        2.04302        4.08208
H         -0.94885        3.36710        2.05701
H         -2.30881        3.01742        0.01998
H         -4.14122        1.37343       -0.00737
H         -3.65012       -2.77458        4.39889
H         -4.46608       -2.27850        0.64239
H         -6.15920       -7.60710       -2.25947
H         -7.37829      -10.70684        1.08951
H         -5.67112      -11.87321       -3.27706
H         -6.98452      -15.07963       -0.04903
H         -9.24152      -19.95327       -3.21377
H        -10.20811      -19.02297       -6.84270
H        -10.08154      -23.49650       -2.72195
H        -12.23306      -24.67259       -2.54925
H        -13.89384      -24.55579       -4.37872
H        -13.47024      -23.22213       -6.38836
