104

C         -3.43259        1.86431        2.57711
C         -3.06071        1.61287        3.90233
C         -2.52777        0.37278        4.28125
C         -2.31687       -0.63045        3.33575
C         -2.63817       -0.36623        2.01256
C         -3.23287        0.87000        1.62866
C         -3.64049        0.76829        0.18377
C         -3.86521        1.78239       -0.68317
C         -3.75192        3.14813       -0.30459
N         -3.65139        4.26546        0.00285
C         -4.12871        1.53522       -2.06037
N         -4.35778        1.31490       -3.17594
C         -3.56541       -0.69338       -0.12428
C         -2.54230       -1.21953        0.79953
C         -1.54219       -2.07282        0.48671
C         -1.36459       -2.53039       -0.85257
N         -1.20139       -2.85134       -1.95669
C         -0.54884       -2.45667        1.42719
N          0.25138       -2.77701        2.20559
C         -4.49738       -1.40122       -0.79655
C         -4.67326       -2.82669       -0.73781
S         -4.54344       -3.73947        0.74032
C         -4.88277       -5.26329        0.00465
C         -5.27756       -5.05273       -1.29424
C         -5.11227       -3.71403       -1.67174
C         -5.48906       -3.56825       -3.03432
C         -5.98939       -4.74976       -3.61040
C         -6.54077       -4.94421       -4.94478
O         -6.94876       -6.00078       -5.42031
O         -6.59027       -3.74565       -5.59897
C         -7.21531       -3.80647       -6.88009
S         -5.95654       -6.15511       -2.55786
C         -4.78298       -6.51291        0.73548
C         -4.85057       -6.69536        2.12320
C         -4.69341       -8.05508        2.48798
C         -4.53418       -8.84939        1.37944
S         -4.47784       -8.03261       -0.06136
C         -4.46899      -10.19667        1.79195
C         -4.60075      -10.25985        3.16345
C         -4.72551       -8.90484        3.68968
C         -4.83907       -8.48727        4.96195
C         -4.83612       -7.09757        5.28487
N         -4.82938       -5.96735        5.54936
C         -5.12321       -9.36859        6.16734
N         -5.35893      -10.09971        7.16730
C         -4.51256      -11.58884        3.63053
C         -4.30285      -12.48192        2.57229
S         -4.26521      -11.65691        1.03338
C         -4.09767      -13.89702        2.59425
C         -5.17207      -14.70136        2.47159
C         -5.04548      -16.13934        2.43286
C         -3.73018      -16.79277        2.48589
C         -2.56646      -16.15600        2.61331
S         -2.43405      -14.42853        2.75229
C         -3.96455      -18.17644        2.38868
C         -5.31570      -18.41545        2.28744
C         -5.60062      -19.78845        2.15231
C         -4.43004      -20.53445        2.18921
S         -3.01691      -19.55183        2.36415
C         -5.99255      -17.12733        2.32889
C         -7.42508      -16.88559        2.27110
C         -8.40472      -17.80218        2.28254
C         -9.81055      -17.44900        2.20901
C        -10.84127      -18.20355        2.63728
C        -12.25546      -18.03809        2.20771
C        -12.95402      -16.88284        2.12332
C        -12.35848      -15.62192        2.43027
N        -11.85797      -14.60199        2.66750
C        -14.34055      -16.84353        1.81075
N        -15.47077      -16.80845        1.55355
C        -12.76897      -19.44202        2.03928
C        -11.83418      -20.34042        2.63262
C        -11.98758      -21.71563        2.51471
C        -13.11104      -22.20607        1.84983
C        -14.05240      -21.32936        1.29616
C        -13.87892      -19.94313        1.37313
C        -10.76209      -19.53344        3.27745
C        -10.10928      -19.84321        4.42286
C        -10.23264      -21.11563        5.04938
N        -10.33327      -22.15870        5.54824
C         -9.38772      -18.85718        5.15954
N         -8.83541      -18.05120        5.78548
H         -3.89126        2.81885        2.34375
H         -3.21254        2.38120        4.65891
H         -2.28624        0.18721        5.32639
H         -1.93750       -1.59472        3.66107
H         -5.26793       -0.88069       -1.36547
H         -5.43429       -2.63689       -3.58991
H         -7.17429       -2.80575       -7.32152
H         -8.26790       -4.09017       -6.77119
H         -6.69009       -4.50033       -7.54077
H         -5.03037       -5.87310        2.80685
H         -4.55801      -11.91327        4.66345
H         -6.16227      -14.27011        2.36846
H         -1.63571      -16.71353        2.64702
H         -6.56997      -20.24727        2.02903
H         -4.32566      -21.60854        2.11525
H         -7.72216      -15.83870        2.26058
H         -8.17401      -18.85841        2.31776
H         -9.99484      -16.53334        1.64817
H        -11.25931      -22.42032        2.90372
H        -13.25348      -23.28095        1.75268
H        -14.92102      -21.73500        0.78001
H        -14.61066      -19.30852        0.88536
