104

C         -2.43254        2.04128        2.25252
C         -2.11211        2.63235        1.02533
C         -2.87064        2.36985       -0.12421
C         -3.98836        1.53855       -0.06672
C         -4.33868        0.99309        1.15874
C         -3.54392        1.21311        2.32143
C         -4.05798        0.32461        3.41995
C         -3.87968        0.46246        4.75272
C         -3.12160        1.52867        5.31332
N         -2.51016        2.40467        5.76557
C         -4.52167       -0.40572        5.68355
N         -5.03736       -1.12726        6.43245
C         -4.93946       -0.65087        2.72005
C         -5.43224        0.05635        1.52066
C         -6.69187        0.04006        1.02941
C         -7.73032       -0.69503        1.67397
N         -8.58104       -1.27221        2.21149
C         -7.07941        0.82312       -0.08678
N         -7.39138        1.45362       -1.01694
C         -4.90452       -1.98607        2.91452
C         -5.36076       -2.95740        1.96445
C         -5.35608       -2.94120        0.56244
C         -5.87806       -4.13124        0.02025
C         -6.14377       -5.04839        1.00700
S         -5.93408       -4.49640        2.55714
C         -6.50071       -6.26875        0.40208
C         -6.49501       -6.11332       -0.96520
C         -6.14742       -4.73108       -1.28951
C         -6.13804       -4.13161       -2.49580
C         -6.47325       -4.83366       -3.68670
N         -6.75137       -5.40688       -4.66049
C         -5.82997       -2.74728       -2.62423
N         -5.57265       -1.61697       -2.68137
C         -6.79572       -7.32437       -1.62297
C         -6.99773       -8.36300       -0.70795
S         -6.82989       -7.80194        0.93257
C         -7.28813       -9.75635       -0.98431
C         -7.47329      -10.79260       -0.06368
C         -7.68846      -12.02584       -0.71332
C         -7.65850      -11.88738       -2.08286
S         -7.41495      -10.33773       -2.62085
C         -7.78216      -13.15918       -2.67527
C         -7.88692      -14.10670       -1.68163
C         -7.87594      -13.43640       -0.37961
C         -8.02196      -13.98448        0.84763
C         -8.22610      -15.38069        1.02055
N         -8.38501      -16.51854        1.16474
C         -8.00265      -13.19580        2.02720
N         -7.98236      -12.54221        2.99228
C         -7.89386      -15.41417       -2.21834
C         -7.78671      -15.39232       -3.61353
S         -7.73585      -13.76225       -4.22227
C         -7.64697      -16.48036       -4.52863
C         -8.68241      -17.13856       -5.06982
C         -8.57694      -18.32524       -5.89691
C         -9.72031      -19.03274       -5.95558
C        -10.77954      -18.44442       -5.14940
S        -10.35398      -16.76925       -4.77319
C        -11.84631      -19.05841       -4.60222
C        -12.26627      -20.43886       -4.75039
C        -13.21963      -20.81307       -3.87748
C        -13.61409      -19.76315       -2.95677
S        -12.86650      -18.25669       -3.40882
C        -14.41295      -19.90653       -1.88177
C        -14.62238      -18.87917       -0.86108
C        -15.36964      -18.96317        0.24757
C        -15.04366      -18.06968        1.41297
O        -14.54809      -16.96520        1.40566
C        -15.35776      -18.88606        2.60705
C        -15.92850      -20.10635        2.21442
C        -16.10180      -21.11152        3.14840
C        -15.78004      -20.85938        4.49978
C        -15.28863      -19.58592        4.89281
C        -15.06495      -18.58937        3.92599
C        -15.02098      -19.24094        6.26317
N        -14.82050      -18.86745        7.34291
C        -15.89697      -21.96684        5.48864
O        -15.18054      -22.04885        6.46866
O        -16.83979      -22.88716        5.20373
C        -16.23305      -20.01334        0.76778
C        -17.36859      -20.47722        0.19342
C        -17.88517      -19.89022       -0.99911
N        -18.36047      -19.37198       -1.92162
C        -18.20963      -21.42242        0.84824
N        -18.83310      -22.20451        1.43665
H         -1.78038        2.22533        3.09962
H         -1.24325        3.28441        0.95269
H         -2.57647        2.80770       -1.07636
H         -4.53107        1.31443       -0.98061
H         -4.39535       -2.39748        3.78481
H         -4.96599       -2.11532       -0.01764
H         -6.84865       -7.46690       -2.69574
H         -7.41948      -10.64170        1.00809
H         -7.92499      -16.33791       -1.65252
H         -6.63407      -16.81591       -4.72688
H         -7.65092      -18.62841       -6.36702
H         -9.81572      -19.97484       -6.47759
H        -11.83992      -21.10523       -5.48850
H        -13.63021      -21.81273       -3.83377
H        -14.84457      -20.88591       -1.69343
H        -13.97088      -18.00496       -0.93352
H        -16.44242      -22.08846        2.82410
H        -14.66156      -17.61304        4.19081
H        -17.39351      -22.78037        4.40935
