94

C         -6.76908        3.25915        0.15454
C         -7.81652        3.53167        1.04118
C         -8.18092        2.61026        2.02959
C         -7.48008        1.41424        2.17800
C         -6.39964        1.16820        1.34046
C         -6.06059        2.07199        0.29384
C         -4.98612        1.44273       -0.55241
C         -4.16436        2.05550       -1.43095
C         -4.23693        3.44975       -1.71227
N         -4.29696        4.58486       -1.94554
C         -3.11406        1.35626       -2.09522
N         -2.27230        0.77431       -2.64200
C         -4.94891        0.01350       -0.11601
C         -5.47784        0.00330        1.26813
C         -5.03631       -0.74101        2.30961
C         -3.95220       -1.66020        2.17633
N         -3.07273       -2.41039        2.08014
C         -5.56635       -0.60841        3.62235
N         -5.99820       -0.50808        4.69664
C         -4.84210       -1.03860       -0.95699
C         -5.23663       -2.37605       -0.63551
C         -6.28331       -2.84271        0.16944
C         -6.29882       -4.24595        0.24694
C         -5.38079       -4.79822       -0.61176
S         -4.39265       -3.70984       -1.38172
C         -5.55442       -6.19477       -0.60921
C         -6.55386       -6.52846        0.27627
C         -7.04525       -5.31133        0.91659
C         -7.90656       -5.19544        1.94613
C         -8.50309       -6.33283        2.55461
N         -8.98660       -7.25991        3.05672
C         -8.20560       -3.92589        2.51269
N         -8.41188       -2.86867        2.94629
C         -6.79369       -7.91854        0.28717
C         -5.96057       -8.58331       -0.61964
S         -4.90271       -7.46521       -1.43953
C         -5.90002      -10.01707       -0.93313
N         -6.74591      -10.80450       -0.23061
N         -6.78545      -12.16545       -0.46177
C         -5.98506      -12.71260       -1.40167
C         -5.10105      -11.93147       -2.12614
C         -5.05764      -10.56534       -1.88824
C         -6.12794      -14.15370       -1.60678
C         -6.51970      -15.14041       -0.69869
C         -6.56928      -16.40528       -1.32105
C         -6.22380      -16.32994       -2.65184
S         -5.83458      -14.81704       -3.19128
C         -6.39328      -17.59274       -3.24864
C         -6.87832      -18.45909       -2.30055
C         -6.93147      -17.78372       -1.00365
C         -7.17281      -18.33097        0.20339
C         -7.44322      -19.72065        0.33360
N         -7.65805      -20.86111        0.38411
C         -7.10986      -17.56436        1.39899
N         -7.05020      -16.94022        2.37455
C         -7.26633      -19.68001       -2.88186
C         -6.91003      -19.74971       -4.23376
S         -6.22764      -18.23133       -4.76987
C         -7.10035      -20.77975       -5.20910
C         -7.15662      -22.10176       -4.94697
C         -7.82900      -23.09232       -5.84347
C         -7.70205      -23.21533       -7.18604
C         -6.85750      -22.35304       -7.94426
N         -6.18089      -21.63625       -8.55634
C         -8.35089      -24.23965       -7.93266
N         -8.88329      -25.06776       -8.54720
C         -8.59774      -23.98558       -4.90756
C         -8.15996      -23.73245       -3.57513
C         -8.81163      -24.30074       -2.48826
C         -9.86168      -25.18677       -2.72779
C        -10.26364      -25.48032       -4.03585
C         -9.64759      -24.86755       -5.13187
C         -7.03290      -22.76190       -3.62829
C         -5.98739      -22.68035       -2.76857
C         -5.94027      -23.42051       -1.55317
N         -5.89518      -24.02094       -0.55982
C         -4.82853      -21.90595       -3.06280
N         -3.87822      -21.28296       -3.29736
H         -6.56689        3.98191       -0.62805
H         -8.37441        4.46198        0.94647
H         -9.02473        2.82433        2.68318
H         -7.81345        0.70119        2.92643
H         -4.53992       -0.89101       -1.99203
H         -6.97998       -2.18284        0.66891
H         -7.52497       -8.44479        0.89184
H         -4.44269      -12.35774       -2.87486
H         -4.36566       -9.96369       -2.46577
H         -6.76640      -14.91332        0.33304
H         -7.79382      -20.47086       -2.36611
H         -7.32212      -20.41388       -6.20962
H         -8.55240      -24.06208       -1.46105
H        -10.38061      -25.64603       -1.88828
H        -11.08483      -26.17631       -4.19974
H        -10.03644      -25.08793       -6.11965
