104

C         -3.49317        2.63454       -1.09079
C         -4.72393        3.12714       -1.53824
C         -5.89905        2.39850       -1.34565
C         -5.87063        1.18719       -0.65801
C         -4.66045        0.72788       -0.14727
C         -3.44902        1.42460       -0.40389
C         -2.29181        0.58962        0.08817
C         -0.99680        0.97484        0.19269
C         -0.54427        2.28203       -0.14916
N         -0.16418        3.34125       -0.42279
C          0.02852        0.11059        0.67323
N          0.87256       -0.60081        1.03160
C         -2.89772       -0.72699        0.47804
C         -4.34996       -0.48003        0.66891
C         -5.18315       -1.03123        1.58410
C         -4.75876       -1.95165        2.58268
N         -4.47247       -2.67954        3.43874
C         -6.54692       -0.64392        1.71409
N         -7.66445       -0.35042        1.81824
C         -2.31381       -1.93493        0.32573
C         -2.95817       -3.22476        0.33277
C         -3.90970       -3.66443       -0.49590
C         -4.27868       -5.00019       -0.11320
C         -3.47672       -5.37388        1.05843
O         -3.55841       -6.40386        1.69395
N         -2.67513       -4.22741        1.25974
C         -1.84472       -4.08632        2.43190
C         -5.24333       -5.43059       -0.92273
N         -5.56456       -4.40383       -1.81327
C         -4.75353       -3.26920       -1.63145
O         -4.74788       -2.19323       -2.19455
C         -6.59224       -4.46049       -2.81690
C         -5.93273       -6.69313       -0.86294
C         -5.96652       -7.63270       -1.81987
C         -6.85584       -8.77353       -1.81957
C         -7.08077       -9.24883       -3.05661
C         -6.37265       -8.49683       -4.08422
S         -5.08144       -7.56886       -3.32281
C         -6.74852       -8.33616       -5.36730
C         -7.92716       -8.90565       -5.99333
C         -8.30659       -8.25711       -7.10579
C         -7.44903       -7.13844       -7.43751
S         -5.99470       -7.18247       -6.47066
C         -7.75408       -6.18285       -8.33024
C         -6.99453       -4.98619       -8.59660
C         -6.70270       -3.99795       -7.74401
C         -5.85868       -3.04182       -8.40375
C         -5.63369       -3.51521       -9.77541
O         -4.89653       -3.01618      -10.59973
N         -6.39551       -4.70359       -9.82466
C         -6.27522       -5.61614      -10.93107
C         -5.51358       -2.08822       -7.53753
N         -6.09106       -2.37592       -6.30163
C         -6.86118       -3.56388       -6.35129
O         -7.48797       -4.13406       -5.48352
C         -5.70542       -1.76977       -5.05152
C         -4.60138       -0.99482       -7.77105
C         -4.83586        0.33393       -7.70542
C         -3.78584        1.40192       -7.66532
C         -2.60299        1.42435       -8.32620
C         -2.16045        0.36204       -9.16017
N         -1.76198       -0.51399       -9.81184
C         -1.70354        2.52314       -8.26726
N         -0.95267        3.41908       -8.22341
C         -4.36522        2.49208       -6.79535
C         -5.71982        2.17565       -6.49251
C         -6.45399        2.96135       -5.60884
C         -5.87506        4.11990       -5.09168
C         -4.56647        4.46924       -5.43046
C         -3.79950        3.64705       -6.26223
C         -6.10869        0.97729       -7.29340
C         -7.34662        0.74270       -7.78986
C         -8.51364        1.40879       -7.32101
N         -9.46951        1.92653       -6.91446
C         -7.54268       -0.09019       -8.92880
N         -7.70816       -0.72426       -9.88576
H         -2.61301        3.22269       -1.32101
H         -4.76348        4.07827       -2.06504
H         -6.84240        2.77584       -1.73501
H         -6.79675        0.63039       -0.55779
H         -1.26470       -2.02198        0.05236
H         -1.88441       -4.99527        3.03847
H         -2.20285       -3.25787        3.04278
H         -0.81567       -3.87586        2.14024
H         -7.47054       -5.00826       -2.47229
H         -6.16711       -4.91800       -3.71100
H         -6.92194       -3.45067       -3.04393
H         -6.53808       -6.82776        0.03135
H         -7.34543       -9.14047       -0.92792
H         -7.77301      -10.04960       -3.27363
H         -8.48264       -9.72942       -5.56812
H         -9.19527       -8.50111       -7.67096
H         -8.68847       -6.25922       -8.88309
H         -5.94631       -5.07643      -11.82405
H         -7.22985       -6.10567      -11.13714
H         -5.51434       -6.36209      -10.68095
H         -4.67789       -2.06668       -4.81899
H         -6.36390       -2.11065       -4.26260
H         -5.79265       -0.68524       -5.08733
H         -3.60070       -1.37522       -7.96549
H         -7.46605        2.71573       -5.30521
H         -6.44944        4.76063       -4.42527
H         -4.13389        5.38626       -5.03358
H         -2.77934        3.95597       -6.45597
