73

C         -1.83317        2.32729        3.36538
C         -1.56044        2.09630        4.71788
C         -2.17431        1.04455        5.39855
C         -3.12447        0.25101        4.75798
C         -3.46294        0.53279        3.43776
C         -2.76180        1.52747        2.70305
C         -3.19583        1.46792        1.25557
C         -2.82797        2.31904        0.26832
C         -1.91473        3.40279        0.46103
N         -1.17145        4.27804        0.59640
C         -3.32096        2.22599       -1.06368
N         -3.69367        2.14638       -2.15882
C         -4.12946        0.28699        1.16889
C         -4.53377       -0.03163        2.56651
C         -5.74308       -0.46166        3.00527
C         -6.85546       -0.61623        2.12448
N         -7.74933       -0.73537        1.39679
C         -6.01803       -0.73764        4.37656
N         -6.22042       -1.00416        5.48706
C         -4.30696       -0.50794        0.08913
C         -4.92101       -1.80823        0.01461
C         -4.86297       -2.90791        1.01894
N         -5.45746       -4.02518        0.72011
C         -5.92056       -3.78565       -0.53120
C         -5.58718       -2.44215       -0.95477
C         -6.11458       -2.23447       -2.34132
S         -6.17591       -0.83342       -3.22648
C         -6.64501       -3.59397       -2.67386
C         -6.53112       -4.44280       -1.50901
N         -7.01795       -5.68826       -1.76113
C         -7.39094       -5.60551       -3.00946
C         -7.16232       -4.30592       -3.66640
C         -7.37384       -3.97932       -5.00768
O         -6.56561       -3.07861       -5.68386
C         -7.01719       -3.08011       -6.96109
C         -8.08550       -3.95531       -7.03204
N         -8.29478       -4.51735       -5.80016
C         -8.72144       -4.14927       -8.26148
C         -8.22811       -3.48812       -9.39102
C         -7.14896       -2.63338       -9.25351
C         -6.51866       -2.38221       -8.04741
O         -6.83738       -2.14957      -10.48191
C         -7.73930       -2.75258      -11.34491
N         -8.60142       -3.53772      -10.70552
C         -7.66916       -2.53531      -12.74689
C         -8.52552       -3.14241      -13.58241
C         -8.43627       -2.96841      -14.99206
C         -7.93510       -1.93179      -15.75342
F         -7.44791       -0.83121      -15.24375
C         -7.99836       -2.16140      -17.13784
F         -7.57846       -1.29842      -18.02407
C         -8.56639       -3.36819      -17.45516
S         -9.03779       -4.20774      -16.03720
C         -8.77536       -3.90894      -18.76294
N         -9.75578       -4.74342      -19.06934
C         -9.61069       -4.96808      -20.42242
C         -8.51365       -4.28319      -20.88238
O         -7.97858       -3.59333      -19.83984
C        -10.50722       -5.79253      -21.19765
O        -10.38090       -5.99412      -22.40156
H         -1.29439        3.13947        2.89307
H         -0.84772        2.73213        5.24127
H         -1.92032        0.85236        6.43938
H         -3.57122       -0.56411        5.31786
H         -3.89162       -0.22157       -0.87520
H         -4.33098       -2.75302        1.96708
H         -7.83606       -6.43714       -3.57758
H         -9.56276       -4.82786       -8.34504
H         -5.67351       -1.71023       -7.96528
H         -6.87286       -1.88882      -13.09872
H         -9.28991       -3.81276      -13.18974
H         -8.02894       -4.17367      -21.84193
H        -11.34027       -6.23483      -20.62627
