110

C        -14.96541        1.36142        3.90487
C        -14.53639        1.77482        5.16914
C        -13.34338        2.47913        5.31739
C        -12.56869        2.80019        4.20147
C        -13.00938        2.43128        2.93092
C        -14.21482        1.68741        2.77470
C        -14.45774        1.42176        1.30690
C        -15.57792        0.88679        0.75611
C        -16.69103        0.42040        1.52478
N        -17.57796        0.01312        2.13629
C        -15.76255        0.75613       -0.64500
N        -15.92044        0.62161       -1.78969
C        -13.23461        1.94504        0.59567
C        -12.50612        2.79924        1.57026
C        -11.80613        3.92541        1.29221
C        -11.97664        4.59831        0.04724
N        -12.18303        5.17337       -0.93966
C        -10.91989        4.53408        2.21851
N        -10.13316        4.96597        2.95524
C        -12.72641        1.48920       -0.57465
C        -11.42060        1.69069       -1.16112
C        -10.09616        1.58610       -0.47681
N         -9.03182        1.58023       -1.23236
C         -9.56056        1.61205       -2.48326
C        -10.99942        1.70225       -2.43333
C        -11.51138        1.66652       -3.84327
S        -12.92165        2.28725       -4.46429
C        -10.31286        1.14617       -4.57979
C         -9.15700        1.33448       -3.72074
N         -8.02215        0.90653       -4.32332
C         -8.47157        0.38242       -5.42376
C         -9.95442        0.40991       -5.63135
C        -10.59638       -0.38962       -6.61292
C         -9.99603       -0.71125       -7.93821
N        -10.49956       -1.71286       -8.59643
C        -11.47081       -2.15869       -7.75902
C        -11.55440       -1.32656       -6.56660
C        -12.54886       -1.96475       -5.63277
S        -13.17469       -1.44056       -4.19006
C        -12.86253       -3.24535       -6.33322
C        -12.21904       -3.25020       -7.62227
N        -12.41300       -4.44176       -8.24522
C        -13.09006       -5.12294       -7.36096
C        -13.40624       -4.43429       -6.08013
C        -13.92688       -4.99724       -4.86470
C        -13.45268       -6.09682       -4.25398
C        -13.82890       -6.55013       -2.93217
C        -12.96121       -7.43180       -2.40484
C        -11.83541       -7.72535       -3.27823
S        -12.16690       -7.09216       -4.88603
C        -10.64216       -8.24404       -2.93052
C        -10.20955       -8.61563       -1.59627
C         -8.87412       -8.68550       -1.47152
C         -8.16819       -8.39283       -2.70153
S         -9.27629       -8.35667       -4.04510
C         -6.85737       -8.11304       -2.78455
C         -6.16277       -7.68930       -4.00965
C         -5.52057       -8.63415       -4.82622
C         -4.85633       -8.24220       -5.99936
C         -4.85268       -6.90149       -6.37305
C         -5.54737       -5.97303       -5.57116
C         -6.17294       -6.34116       -4.38656
S         -5.53516       -4.33323       -6.28117
C         -4.60092       -4.98002       -7.65580
C         -4.31818       -4.20902       -8.72470
C         -4.69517       -2.82236       -8.93067
C         -5.45338       -2.32666       -9.92378
C         -6.14385       -2.94709      -11.06647
C         -5.66837       -3.89389      -11.90665
C         -4.27945       -4.21573      -11.95655
N         -3.14320       -4.43287      -12.04680
C         -6.46439       -4.54724      -12.88828
N         -7.10951       -5.11772      -13.66676
C         -7.32641       -2.08521      -11.37319
C         -7.16687       -0.87288      -10.67891
C         -6.02338       -0.94910       -9.75524
O         -5.68642       -0.08429       -8.96952
C         -7.99626        0.22479      -10.85585
C         -9.04949        0.09896      -11.75632
C         -9.25677       -1.11167      -12.43270
C         -8.40326       -2.20835      -12.24106
N         -4.27780       -6.34541       -7.54317
C         -3.00068       -6.90666       -7.97561
H        -15.89706        0.81096        3.86932
H        -15.14268        1.55072        6.04639
H        -13.02348        2.79621        6.30894
H        -11.65354        3.35462        4.37454
H        -13.29600        0.78217       -1.17628
H        -10.04774        1.47890        0.61269
H         -7.82355       -0.09652       -6.17450
H         -9.13878       -0.12024       -8.29108
H        -13.42419       -6.16075       -7.51250
H        -14.66728       -4.38900       -4.34801
H        -14.69122       -6.16667       -2.40327
H        -13.05566       -7.83900       -1.40785
H        -10.89090       -8.75670       -0.76933
H         -8.36252       -8.88569       -0.54042
H         -6.23733       -8.11704       -1.89361
H         -5.55334       -9.68998       -4.56471
H         -4.40096       -9.00430       -6.62259
H         -6.67910       -5.59412       -3.78332
H         -3.76238       -4.67258       -9.52757
H         -4.41138       -2.15776       -8.11062
H         -7.82693        1.14865      -10.31188
H         -9.72180        0.93577      -11.93298
H        -10.09101       -1.20107      -13.12725
H         -8.61871       -3.11641      -12.79293
H         -2.73236       -6.56387       -8.98019
H         -3.01542       -7.99976       -8.02288
H         -2.20036       -6.59879       -7.29190
