109

C        -14.44562       -0.57328       -2.26782
C        -15.12021        0.18898       -1.31102
C        -15.03998       -0.13556        0.04703
C        -14.31325       -1.25089        0.47212
C        -13.69167       -2.05154       -0.48019
C        -13.72866       -1.69150       -1.85655
C        -12.89086       -2.66960       -2.62212
C        -12.98139       -2.96690       -3.94071
C        -13.84604       -2.27240       -4.82929
N        -14.55033       -1.70903       -5.56078
C        -12.29898       -4.08093       -4.52319
N        -11.76736       -4.98444       -5.00851
C        -12.11711       -3.43228       -1.59306
C        -12.92661       -3.33540       -0.35597
C        -13.19853       -4.31137        0.53843
C        -12.71675       -5.64246        0.35041
N        -12.34785       -6.72255        0.18547
C        -14.04000       -4.11683        1.66819
N        -14.69576       -3.94601        2.61231
C        -10.83785       -3.83253       -1.78174
C         -9.82563       -4.58139       -0.98270
C         -9.67772       -4.66553        0.40181
C         -8.88206       -5.69627        1.03139
N         -9.13284       -5.93051        2.33273
C         -9.85633       -5.04723        3.06407
C        -10.36702       -3.90341        2.48759
N        -10.34405       -3.75696        1.14583
C        -10.96926       -2.78834        3.28581
C        -10.08570       -5.38519        4.50330
C         -7.86621       -6.45236        0.35548
C         -7.79723       -6.14857       -1.04417
C         -8.84052       -5.29216       -1.72158
N         -8.71901       -5.28577       -3.06295
S         -7.37486       -6.15738       -3.43842
N         -6.83653       -6.50308       -1.91895
C         -6.90772       -7.44233        1.00301
C         -6.35953       -8.60392        0.35836
C         -5.34729       -9.45398        0.94980
N         -4.73919      -10.42140        0.23695
C         -5.09622      -10.60604       -1.05010
C         -6.13625       -9.88130       -1.59871
N         -6.78216       -8.92954       -0.87806
C         -6.55352      -10.04363       -3.02827
C         -4.31800      -11.62080       -1.82826
C         -4.94968       -9.33798        2.28098
C         -5.53880       -8.29131        3.02137
C         -6.44720       -7.27854        2.35470
N         -6.66732       -6.23993        3.18176
S         -6.18377       -6.67963        4.69529
N         -5.37980       -8.07385        4.33978
C         -3.99365      -10.24465        2.95091
C         -2.66983      -10.05666        3.07965
C         -1.89029       -8.93768        2.61441
C         -0.59670       -8.99694        2.95963
C         -0.23652      -10.16889        3.74199
S         -1.64703      -11.21682        3.91825
C          0.96120      -10.37409        4.32762
C          2.10224       -9.47369        4.25407
C          3.01079       -9.67887        5.21730
C          2.64827      -10.75626        6.11056
S          1.32636      -11.68929        5.45080
C          3.17236      -10.89625        7.33589
C          2.75274      -11.83628        8.36169
C          2.21047      -11.48062        9.53987
C          1.71268      -12.27065       10.69794
C          1.94279      -13.58219       10.95920
C          1.39583      -14.25894       12.08750
N          0.95618      -14.81769       13.00518
C          2.76739      -14.40118       10.13526
N          3.44295      -15.07743        9.47617
C          0.92045      -11.32021       11.55548
C          0.91471      -10.07177       10.93424
C          1.84127      -10.04925        9.80452
O          2.26325       -9.03463        9.28783
C          0.18937       -8.96889       11.36978
C         -0.49382       -9.08222       12.59495
C         -0.39931      -10.28891       13.30390
C          0.28144      -11.42829       12.78892
S         -1.18675      -10.15806       14.83906
C         -1.66661       -8.56809       14.53251
C         -1.28585       -8.11417       13.29923
Br        -2.60884       -7.51858       15.76549
H        -14.50418       -0.25688       -3.30309
H        -15.70292        1.05359       -1.62488
H        -15.55116        0.48813        0.77841
H        -14.25308       -1.45402        1.53602
H        -10.41580       -3.58855       -2.75915
H        -11.38180       -2.01694        2.62655
H        -10.20050       -2.31589        3.90702
H        -11.77717       -3.15155        3.92598
H        -11.16142       -5.43448        4.70376
H         -9.62798       -4.63984        5.15925
H         -9.66311       -6.36552        4.74405
H         -7.44944       -9.45316       -3.24252
H         -5.75584       -9.69955       -3.69541
H         -6.78357      -11.08966       -3.24938
H         -3.88567      -11.16834       -2.72671
H         -4.96338      -12.45540       -2.11646
H         -3.49214      -12.02020       -1.23005
H         -4.45360      -11.14166        3.35983
H         -2.31702       -8.11547        2.05935
H          0.10650       -8.21352        2.71748
H          2.18518       -8.67016        3.53674
H          3.88466       -9.05866        5.36641
H          3.90798      -10.16209        7.66748
H          2.90622      -12.87133        8.07486
H          0.18670       -8.04574       10.79686
H          0.30636      -12.32332       13.39889
H         -1.51177       -7.12426       12.92048
