120

C          2.78932        0.55900       -1.13834
F          2.98135        1.16485       -2.31868
C          2.81108        1.30385        0.02828
F          3.02658        2.62600       -0.01671
C          2.60508        0.67232        1.24205
F          2.61778        1.38679        2.37649
C          2.38145       -0.70575        1.29032
F          2.15466       -1.25348        2.49402
C          2.37326       -1.49690        0.12404
C          2.57405       -0.82104       -1.09186
F          2.58054       -1.49924       -2.25015
C          2.17536       -2.96657        0.15171
C          1.59138       -3.80500       -0.77801
C          1.61416       -5.22332       -0.43787
C          1.20258       -6.37944       -1.16353
C          0.77943       -6.21638       -2.59712
C          1.26894       -5.36357       -3.58276
C          0.61033       -5.49001       -4.84638
C         -0.33986       -6.48441       -4.84154
S         -0.55406       -7.09960       -3.26120
C         -1.16639       -7.02449       -5.96525
Cl         1.01952       -4.50497       -6.18649
C          1.24093       -7.65825       -0.53561
C          1.59537       -7.80908        0.81753
C          2.07183       -6.65909        1.52256
C          2.11118       -5.39811        0.86368
S          2.79522       -3.90463        1.42580
C          2.52910       -6.76635        2.95438
C          2.45950       -5.84537        3.99801
C          2.98483       -6.31919        5.23925
C          3.43033       -7.61577        5.15236
S          3.36132       -8.16825        3.53880
C          3.95156       -8.51159        6.22792
Cl         3.00558       -5.34678        6.64909
C          1.36321       -9.18880        1.23850
C          1.04513      -10.06943        0.22866
S          0.93847       -9.22278       -1.23564
C          0.81740      -11.50496        0.33388
C          0.35304      -12.22007        1.44679
C          0.17824      -13.60724        1.16472
C          0.61275      -13.88477       -0.10756
S          1.14112      -12.58209       -0.99242
C          0.45951      -15.26184       -0.34975
C         -0.07903      -15.87144        0.76260
C         -0.31884      -14.86738        1.79831
C         -0.95070      -14.99356        2.99871
C         -1.27713      -13.63843        3.60491
N         -1.54794      -12.51424        4.10780
C         -1.45840      -16.20152        3.53839
N         -1.86366      -17.18350        3.96493
C         -0.30248      -17.24306        0.52439
C          0.08558      -17.60042       -0.77206
S          0.73761      -16.25261       -1.64754
C         -0.03112      -18.88643       -1.41236
C          0.78923      -19.44330       -2.36329
C          0.40022      -20.77375       -2.80839
C          0.96025      -21.64956       -3.78895
C          2.11517      -21.19426       -4.63792
C          3.21757      -21.88884       -5.13113
C          4.10572      -21.09096       -5.92096
C          3.71035      -19.77687       -5.98146
S          2.17151      -19.58093       -5.27107
C          4.39138      -18.61134       -6.62409
Cl         5.49726      -21.74311       -6.67879
C          0.40237      -22.94245       -3.96824
C         -0.66422      -23.40374       -3.18064
C         -1.23471      -22.52281       -2.21648
C         -0.71885      -21.20859       -2.07765
S         -1.33227      -19.90956       -1.10048
C         -2.39506      -22.99259       -1.38019
C         -3.46374      -23.82789       -1.69217
C         -4.39110      -24.01920       -0.61993
C         -4.07488      -23.26101        0.48106
S         -2.52055      -22.57922        0.30202
C         -4.83719      -23.04174        1.74709
Cl        -5.74614      -25.05635       -0.76294
C         -0.97406      -24.77948       -3.51749
C         -0.26299      -25.33540       -4.56479
S          0.82914      -24.14915       -5.14068
C         -0.34223      -26.65001       -5.16573
C         -1.51554      -27.30995       -5.34328
O         -1.62904      -28.56997       -5.92026
C         -0.51742      -29.20004       -6.39603
C         -0.70059      -30.43707       -7.01708
C          0.39944      -31.13672       -7.51607
C          1.68089      -30.60028       -7.39154
C          1.85932      -29.36280       -6.77047
C          0.75212      -28.66331       -6.27428
C          0.91008      -27.36143       -5.60903
O          2.04149      -26.92274       -5.42843
C         -2.88398      -26.79253       -4.98455
H          1.15892       -3.42092       -1.69433
H          2.07714       -4.66057       -3.42172
H         -1.15651       -6.36302       -6.83757
H         -2.21168       -7.15267       -5.66561
H         -0.78219       -7.99935       -6.28876
H          2.04223       -4.85149        3.90421
H          4.46620       -7.94343        7.01020
H          4.66680       -9.24344        5.83520
H          3.12834       -9.06114        6.69687
H          1.47716       -9.53911        2.25385
H          0.12607      -11.71834        2.37780
H         -0.73981      -17.94811        1.22246
H          1.65298      -18.91013       -2.73073
H          3.39967      -22.94291       -4.95351
H          5.47480      -18.64207       -6.45897
H          4.03591      -17.65558       -6.22171
H          4.20980      -18.61493       -7.70332
H         -3.60317      -24.29426       -2.65795
H         -5.89838      -23.28675        1.62842
H         -4.79004      -21.99209        2.06162
H         -4.43234      -23.66166        2.55224
H         -1.71946      -25.34595       -2.98523
H         -1.69816      -30.85794       -7.11319
H          0.25814      -32.10061       -8.00085
H          2.53994      -31.14491       -7.77687
H          2.86067      -28.94589       -6.67341
H         -3.08398      -25.82861       -5.46066
H         -3.01075      -26.71843       -3.90167
H         -3.66290      -27.48597       -5.32310
