86

C          5.04642       -2.43697        2.70255
F          6.34938       -2.72733        2.82387
C          4.55869       -1.23072        3.16886
F          5.38661       -0.34886        3.74526
C          3.21117       -0.94049        3.03059
F          2.73551        0.23157        3.47411
C          2.34499       -1.86567        2.44137
F          1.04558       -1.54384        2.34664
C          2.80516       -3.10868        1.97690
C          4.18656       -3.35649        2.10517
F          4.73105       -4.49082        1.63913
C          1.87156       -4.11067        1.40938
C          0.66614       -3.93973        0.71209
C          0.08447       -5.18552        0.35966
C          0.85182       -6.23492        0.80602
S          2.20341       -5.80696        1.65584
C          0.25087       -7.45206        0.43097
C         -0.91217       -7.18658       -0.25313
C         -1.09396       -5.72648       -0.33210
C         -2.10039       -5.03660       -0.89829
C         -3.19000       -5.70058       -1.53477
N         -4.06390       -6.25348       -2.05033
C         -2.14454       -3.61219       -0.88982
N         -2.16458       -2.44723       -0.88840
C         -1.54711       -8.39096       -0.65305
C         -0.81628       -9.52150       -0.25634
S          0.62224       -9.05891        0.62036
C         -1.07262      -10.91824       -0.47224
C         -0.54274      -11.50005       -1.56871
C         -0.71328      -12.90552       -1.84615
C         -1.48709      -13.78627       -0.95355
C         -2.08031      -13.38806        0.17146
S         -2.02895      -11.74355        0.74940
C         -1.42788      -15.08078       -1.51106
C         -0.66795      -15.05226       -2.65383
C         -0.55995      -16.30217       -3.28608
C         -1.26586      -17.25547       -2.56450
S         -2.02971      -16.59674       -1.14921
C         -0.22365      -13.69020       -2.85299
C          0.65958      -13.32527       -3.93547
C          0.36862      -12.44026       -4.90193
C          1.25819      -12.18529       -5.99229
C          2.53861      -12.68027       -6.26760
C          3.05238      -12.16706       -7.47696
C          2.15629      -11.32242       -8.08887
S          0.73985      -11.09028       -7.25597
C          2.72003      -10.85595       -9.29570
C          3.97702      -11.39347       -9.44073
C          4.26221      -12.26358       -8.29414
C          5.37328      -12.98281       -8.04169
C          6.48671      -12.97160       -8.92622
N          7.39098      -12.95232       -9.64950
C          5.49129      -13.79730       -6.88088
N          5.58041      -14.46331       -5.93132
C          4.60759      -10.91292      -10.61176
C          3.80472       -9.99010      -11.31010
S          2.24408       -9.84993      -10.52319
C          4.17437       -9.09176      -12.37802
C          5.33900       -9.24658      -13.04382
O          6.21411       -8.19145      -13.30151
C          5.91506       -6.97803      -12.72859
C          6.92910       -6.05261      -12.50860
C          6.59964       -4.76799      -12.06106
C          5.26222       -4.40345      -11.87044
C          4.25314       -5.34533      -12.04807
C          4.60148       -6.63914      -12.42916
C          3.61004       -7.71241      -12.45160
O          2.41307       -7.47111      -12.53400
C          5.71591      -10.51670      -13.75121
H          0.25721       -2.96115        0.48358
H         -2.47658       -8.47633       -1.20368
H          0.04552      -10.91873       -2.27163
H         -2.62291      -14.10185        0.78481
H         -0.02200      -16.51628       -4.20080
H         -1.38055      -18.30757       -2.78963
H          1.58618      -13.89441       -3.95167
H         -0.58909      -11.92288       -4.88657
H          3.04764      -13.37678       -5.61352
H          5.62675      -11.13448      -10.90512
H          7.96815       -6.32329      -12.67300
H          7.38565       -4.03917      -11.87660
H          5.00725       -3.39147      -11.56554
H          3.21127       -5.08547      -11.87635
H          6.46650      -11.09578      -13.21275
H          6.11989      -10.26581      -14.74154
H          4.83505      -11.14213      -13.94014
