97

C         -0.04219        2.90683        4.57325
C          0.32465        2.44312        5.79759
C          1.68923        2.31514        6.18863
N          2.80181        2.20518        6.50617
C         -0.63015        2.11280        6.79853
N         -1.41619        1.83698        7.60325
C          0.86914        3.40912        3.49562
C          0.11160        4.18760        2.61698
C          0.61073        4.78724        1.46874
C          1.97162        4.58302        1.16472
C          2.74965        3.80525        2.03720
C          2.21595        3.20413        3.21041
S          4.38058        3.69540        1.46955
C          4.04052        4.63191        0.10623
C          2.73708        5.04201        0.04051
Br         5.31817        5.06662       -1.19286
C         -1.30069        4.20751        3.01296
O         -2.14719        4.92906        2.53192
C         -1.42482        3.17933        4.09805
C         -2.56954        2.52484        4.36266
C         -3.79680        2.76207        3.67452
C         -4.28839        2.12448        2.53126
C         -5.58314        2.58409        2.20031
C         -6.00586        3.56359        3.07092
S         -4.93886        3.91944        4.29590
C         -7.27722        4.02045        2.65882
C         -7.66635        3.32404        1.53606
C         -6.62272        2.35420        1.19125
C         -6.62348        1.45453        0.18824
C         -5.53560        0.55982       -0.00955
N         -4.64530       -0.16910       -0.16200
C         -7.71388        1.34323       -0.71947
N         -8.60122        1.25345       -1.45720
C         -8.91396        3.78006        1.04374
C         -9.39409        4.85372        1.79786
S         -8.34614        5.18741        3.15521
C        -10.55095        5.69273        1.53922
C        -10.67651        7.04103        1.87247
C        -11.86704        7.61081        1.36456
C        -12.66027        6.64818        0.79194
S        -11.97341        5.12971        0.71720
C        -13.86712        7.25966        0.38685
C        -13.83148        8.61025        0.68662
C        -12.53991        8.93034        1.29302
C        -11.97560       10.11637        1.63207
C        -10.49021       10.02068        1.94007
N         -9.25795        9.94131        2.19559
C        -12.66032       11.47314        1.60514
N        -13.22836       12.59869        1.58279
C        -15.00410        9.26136        0.24194
C        -15.88145        8.36307       -0.38294
S        -15.25346        6.73391       -0.35754
C        -17.14041        8.59824       -1.02313
C        -18.26043        8.51014       -0.27990
C        -19.56667        8.70350       -0.85513
C        -19.76150        8.94262       -2.29355
C        -18.77155        9.05587       -3.17899
S        -17.08700        8.95289       -2.74297
C        -21.15444        9.02490       -2.50046
C        -21.80744        8.85773       -1.30237
C        -23.20520        8.92788       -1.41594
C        -23.55966        9.15424       -2.73952
S        -22.18307        9.27339       -3.79337
C        -20.80475        8.66636       -0.27823
C        -21.11839        8.44394        1.11515
C        -20.66613        9.22409        2.11027
C        -21.03487        9.01831        3.51217
C        -22.18166        9.63901        4.02026
C        -22.53141        9.47906        5.36104
C        -21.72214        8.69288        6.19178
C        -20.55108        8.07324        5.72217
C        -20.23102        8.23804        4.35944
C        -19.64048        7.26081        6.60347
O        -20.06675        5.91045        6.61416
N        -22.12753        8.55236        7.58081
O        -22.25247        9.59401        8.23782
O        -22.30789        7.40234        8.00518
H         -0.04020        5.36210        0.81551
H          2.86681        2.58778        3.82137
H          2.32949        5.64236       -0.76449
H         -2.59738        1.69639        5.06319
H         -3.71739        1.37452        1.99751
H         -9.42063        3.41815        0.15744
H         -9.89529        7.55361        2.41663
H        -15.21556       10.32133        0.31679
H        -18.20818        8.26019        0.77499
H        -18.98818        9.23141       -4.22831
H        -23.92007        8.82657       -0.60994
H        -24.55442        9.25839       -3.15222
H        -21.79211        7.61441        1.32107
H        -20.02985       10.08343        1.91243
H        -22.80221       10.25862        3.37559
H        -23.42186        9.97040        5.74793
H        -19.33511        7.76341        3.96056
H        -19.58879        7.64679        7.62748
H        -18.61656        7.29090        6.21491
H        -20.77639        5.83738        7.28078
