104

C          1.03690        5.23034        2.32457
C          1.63814        6.39692        2.67602
C          3.05337        6.53447        2.75787
N          4.20764        6.64984        2.82111
C          0.90552        7.59668        2.91568
N          0.30330        8.56522        3.12280
C          1.73070        3.97173        1.90278
C          0.81449        3.20515        1.18645
C          1.07536        1.95141        0.65122
C          2.36694        1.42475        0.83248
C          3.31131        2.18283        1.54281
C          3.01059        3.45903        2.09924
S          4.82392        1.34630        1.62327
C          4.22157        0.03148        0.75029
C          2.90960        0.17264        0.39151
Br         5.24423       -1.47529        0.31263
C         -0.47874        3.87357        1.09789
O         -1.36111        3.54122        0.33362
C         -0.41662        5.01658        2.06742
C         -1.47610        5.58059        2.67640
C         -2.85752        5.27768        2.44303
C         -3.51199        4.08890        2.10600
C         -4.90618        4.25560        2.00136
C         -5.27717        5.55951        2.22368
S         -4.02699        6.57669        2.62383
C         -6.66869        5.67352        2.01285
C         -7.17437        4.44125        1.66819
C         -6.08608        3.45902        1.67137
C         -6.15142        2.12972        1.44678
C         -5.00944        1.28690        1.51649
N         -4.08900        0.57353        1.59025
C         -7.38471        1.48827        1.14783
N         -8.38028        0.94781        0.90478
C         -8.56151        4.50850        1.39917
C         -9.06174        5.80874        1.56142
S         -7.78192        6.90129        2.02966
C        -10.43205        6.32156        1.38088
C        -11.00261        7.42044        2.06657
F        -10.25974        8.09515        2.96062
C        -12.33926        7.87019        1.89659
F        -12.73584        8.92463        2.63038
C        -13.26193        7.27902        1.01847
C        -12.73161        6.19179        0.28542
C        -11.33547        5.71496        0.46898
N        -11.15430        4.67106       -0.36227
N        -12.33879        4.55942       -0.97301
N        -13.31229        5.41841       -0.65078
C        -12.55377        3.54880       -1.98037
C        -14.64946        7.71773        0.83575
C        -14.93783        8.67594       -0.06288
C        -16.28091        9.12053       -0.31517
C        -17.43061        8.46763        0.32185
C        -17.33603        7.52108        1.25639
S        -15.81451        6.92380        1.86913
C        -18.58124        9.08191       -0.21007
C        -18.21363       10.08397       -1.07797
C        -19.31388       10.74249       -1.65382
C        -20.49704       10.17747       -1.19300
S        -20.23270        8.88269       -0.06770
C        -16.76636       10.10003       -1.13797
C        -15.99734       11.03991       -1.92798
C        -15.11808       10.68992       -2.88224
C        -14.33816       11.62977       -3.66417
C        -13.45521       12.52554       -3.19804
C        -12.90326       13.60566       -4.08099
O        -12.85531       13.58815       -5.29305
C        -12.50506       14.70480       -3.15542
C        -12.76474       14.30350       -1.82639
C        -13.02552       12.84618       -1.84298
C        -12.49870       11.98212       -0.94319
C        -12.21371       10.63204       -1.30082
N        -11.92976        9.54396       -1.58947
C        -12.00631       12.39399        0.32568
N        -11.61926       12.73959        1.36475
C        -12.67521       15.21818       -0.79379
C        -12.22663       16.50791       -1.08928
C        -11.84079       16.87960       -2.39616
C        -11.98189       15.96563       -3.46977
C        -11.55932       16.35616       -4.75812
C        -10.99513       17.61350       -4.97484
C        -10.87152       18.51088       -3.91997
C        -11.30139       18.15041       -2.64269
H          0.30130        1.40302        0.12165
H          3.78115        3.97812        2.65700
H          2.34697       -0.56667       -0.16699
H         -1.30782        6.32862        3.44717
H         -2.99296        3.15907        1.92197
H         -9.18820        3.67738        1.09692
H        -11.76312        2.79706       -1.91104
H        -12.52873        4.03388       -2.95890
H        -13.52523        3.08025       -1.80543
H        -14.16476        9.09344       -0.68033
H        -18.23077        7.09842        1.70070
H        -19.27864       11.55583       -2.36682
H        -21.51139       10.44560       -1.45657
H        -16.19547       12.08977       -1.71538
H        -14.99512        9.64166       -3.15389
H        -14.53347       11.59288       -4.73777
H        -12.92683       14.96812        0.23267
H        -12.13998       17.22475       -0.27279
H        -11.63166       15.67127       -5.60127
H        -10.64535       17.88640       -5.96744
H        -10.43165       19.49068       -4.08798
H        -11.18996       18.86855       -1.83254
