107

C         -0.29959        0.94475        2.62143
C          0.60668        1.37101        3.53538
C          1.95604        0.90723        3.55531
N          3.05142        0.52532        3.57497
C          0.29570        2.35957        4.51013
N          0.03406        3.15893        5.31449
C         -0.03817        0.01478        1.48013
C         -1.05616        0.18491        0.53894
C         -1.16210       -0.54425       -0.63905
C         -0.17846       -1.52345       -0.89448
C          0.85253       -1.70353        0.04115
C          0.93682       -0.94936        1.24203
S          1.94663       -2.93902       -0.47634
C          1.06243       -3.22348       -1.88573
C         -0.04903       -2.43296       -1.99892
Br         1.55436       -4.49662       -3.16866
C         -2.04005        1.17015        1.00586
O         -2.92572        1.64645        0.32897
C         -1.68742        1.44115        2.44055
C         -2.58024        1.85282        3.35908
C         -3.95137        2.10994        3.05960
C         -5.02152        1.21100        3.04344
C         -6.22887        1.85474        2.68944
C         -6.04793        3.20880        2.51127
S         -4.48256        3.73296        2.71933
C         -7.29459        3.79857        2.19684
C         -8.26033        2.81683        2.16122
C         -7.63669        1.52171        2.45297
C         -8.21293        0.30364        2.46474
C         -7.47172       -0.87225        2.76578
N         -6.86604       -1.82979        3.01930
C         -9.58872        0.12377        2.15568
N        -10.71041       -0.02700        1.89878
C         -9.53982        3.35249        1.87232
C         -9.49070        4.74021        1.70726
S         -7.85780        5.33252        1.89719
C        -10.58365        5.65636        1.41487
C        -10.67732        7.00419        1.77156
C        -11.85296        7.61603        1.26036
C        -12.64028        6.69456        0.61383
S        -11.99936        5.15815        0.53371
C        -13.82804        7.33816        0.19783
C        -13.80231        8.66410        0.58778
C        -12.52425        8.94165        1.23871
C        -11.97560       10.11637        1.63207
C        -10.49021       10.02068        1.94007
N         -9.25795        9.94131        2.19559
C        -12.66032       11.47314        1.60514
N        -13.22836       12.59869        1.58279
C        -14.98012        9.34146        0.19475
C        -15.85733        8.48919       -0.49052
S        -15.18525        6.87851       -0.63961
C        -17.14711        8.74015       -1.06887
C        -18.24154        8.54862       -0.30404
C        -19.57484        8.65485       -0.84550
C        -19.82529        9.09397       -2.22968
C        -18.86776        9.35585       -3.11895
S        -17.16674        9.20634       -2.76420
C        -21.22721        9.13979       -2.39022
C        -21.83213        8.74846       -1.22184
C        -23.23390        8.77157       -1.27257
C        -23.64749        9.17032       -2.53530
S        -22.31620        9.52325       -3.59838
C        -20.79445        8.42691       -0.27232
C        -21.09537        8.01132        1.07501
C        -20.57224        6.94404        1.69725
C        -20.90963        6.62582        3.07068
C        -20.14673        5.95166        3.94520
C        -20.47280        5.48723        5.31378
C        -21.31646        6.06933        6.20440
C        -21.48109        5.58362        7.53427
N        -21.62195        5.18188        8.61380
C        -22.05560        7.25115        5.90726
N        -22.66139        8.21318        5.66057
C        -19.53411        4.36155        5.60144
C        -18.51860        4.38066        4.63629
C        -18.79412        5.38847        3.60901
O        -18.05356        5.66513        2.68865
C        -17.45018        3.50084        4.61624
C        -17.40626        2.50619        5.59098
C        -18.45242        2.41332        6.55279
C        -19.51248        3.34885        6.55071
C        -18.40924        1.37277        7.49062
C        -17.35351        0.45791        7.49482
C        -16.32435        0.56733        6.56332
C        -16.35157        1.58468        5.61223
H         -1.99228       -0.37886       -1.32052
H          1.74075       -1.16777        1.93650
H         -0.74472       -2.48222       -2.82826
H         -2.32022        1.92359        4.41026
H         -4.89516        0.15789        3.26441
H        -10.46336        2.79107        1.80005
H         -9.90712        7.48023        2.36555
H        -15.20420       10.38636        0.37196
H        -18.14734        8.27798        0.74389
H        -19.12536        9.66400       -4.12778
H        -23.90738        8.51381       -0.46529
H        -24.66211        9.27490       -2.89551
H        -21.81697        8.64481        1.58762
H        -19.88139        6.28601        1.17142
H        -21.90313        6.96110        3.35594
H        -16.69527        3.57852        3.83871
H        -20.30453        3.23493        7.28502
H        -19.20045        1.26182        8.22956
H        -17.33506       -0.34293        8.22952
H        -15.50176       -0.14336        6.57200
H        -15.54416        1.64843        4.88473
