103

C         -0.98483        1.40429        5.47658
C         -1.01539        0.78443        6.68661
C          0.16869        0.48821        7.42857
N          1.12452        0.26323        8.03299
C         -2.23670        0.45748        7.34652
N         -3.22970        0.18957        7.87424
C          0.23301        1.91975        4.77409
C         -0.19007        2.86100        3.83047
C          0.65670        3.52147        2.94900
C          2.03780        3.24963        3.03474
C          2.48363        2.32997        3.99765
C          1.59541        1.63917        4.86764
S          4.20950        2.19008        3.95383
C          4.33638        3.29845        2.68568
C          3.12764        3.78272        2.26567
Br         5.96905        3.81915        1.92801
C         -1.64383        3.03609        3.88558
O         -2.25094        3.97819        3.41343
C         -2.15856        1.89441        4.70691
C         -3.39118        1.36882        4.57359
C         -4.38926        1.87730        3.68620
C         -4.66266        1.52025        2.36068
C         -5.73176        2.27952        1.82914
C         -6.28204        3.10567        2.78354
S         -5.54952        3.03872        4.27404
C         -7.36126        3.81064        2.20726
C         -7.48439        3.44530        0.88502
C         -6.45327        2.45716        0.56314
C         -6.21334        1.86927       -0.62528
C         -5.16448        0.91981       -0.78906
N         -4.31510        0.14217       -0.91835
C         -6.98805        2.16376       -1.78485
N         -7.61393        2.39707       -2.73453
C         -8.54676        4.12883        0.25129
C         -9.19984        4.98074        1.14322
S         -8.47560        4.92303        2.72740
C        -10.32070        5.85616        0.87920
C        -10.59384        7.06759        1.50977
C        -11.71291        7.71012        0.93873
C        -12.32512        6.90678        0.00934
S        -11.53522        5.47733       -0.30554
C        -13.52177        7.53539       -0.38796
C        -13.65281        8.73423        0.28337
C        -12.45761        8.97810        1.07384
C        -11.97560       10.11637        1.63207
C        -10.49021       10.02068        1.94007
N         -9.25795        9.94131        2.19559
C        -12.66032       11.47314        1.60514
N        -13.22836       12.59869        1.58279
C        -14.90465        9.31953        0.04254
C        -15.67918        8.54954       -0.83698
S        -14.79354        7.13593       -1.37127
C        -17.01861        8.69068       -1.32205
C        -17.67044        9.85130       -1.48618
C        -19.01284        9.96126       -2.01935
C        -19.37079       11.22001       -2.31870
C        -18.32303       12.19242       -2.06482
S        -17.01192       11.43045       -1.18614
C        -18.24867       13.46222       -2.49900
C        -19.20457       14.16108       -3.33231
C        -18.73014       15.30518       -3.85280
C        -17.36470       15.59137       -3.46678
S        -16.83394       14.48215       -2.23412
C        -16.59312       16.55235       -4.00107
C        -15.19294       16.79201       -3.69066
C        -14.17369       15.93485       -3.85989
C        -12.87053       16.19684       -3.15853
O        -12.43977       17.25053       -2.74376
C        -12.22999       14.87204       -3.01586
C        -13.01004       13.89133       -3.64085
C        -12.68934       12.55377       -3.45991
C        -11.50319       12.21014       -2.77951
C        -10.68422       13.22292       -2.21814
C        -11.07258       14.57152       -2.31688
C         -9.44086       12.93876       -1.55306
N         -8.41130       12.79216       -1.03698
C        -11.17452       10.77120       -2.59410
O        -10.59778       10.35965       -1.60241
O        -11.60686        9.95515       -3.57591
C        -14.09305       14.57142       -4.39829
C        -14.64962       14.10021       -5.54094
C        -15.44520       14.91474       -6.39742
N        -16.06307       15.57169       -7.12727
C        -14.34741       12.80056       -6.04146
N        -14.04415       11.73783       -6.39781
H          0.25882        4.22154        2.21940
H          2.00964        0.92413        5.57039
H          3.00761        4.49774        1.45998
H         -3.68187        0.47414        5.11525
H         -4.09341        0.76744        1.83001
H         -8.83791        4.04301       -0.78888
H         -9.96925        7.45263        2.30608
H        -15.25276       10.22445        0.52128
H        -17.52529        7.77309       -1.61816
H        -19.64894        9.09957       -2.17796
H        -20.32950       11.47892       -2.74533
H        -20.19260       13.77741       -3.54295
H        -19.28774       15.93748       -4.52746
H        -17.01882       17.23173       -4.73787
H        -15.00421       17.75124       -3.20544
H        -13.36781       11.77713       -3.79999
H        -10.48954       15.36782       -1.85650
H        -11.99200       10.34134       -4.38653
