102

C         -0.95084        1.48813       -2.67183
C         -0.41997        1.56320       -3.91497
C          0.51978        0.61552       -4.41164
N          1.28916       -0.15311       -4.81506
C         -0.80871        2.57123       -4.85079
N         -1.12020        3.39686       -5.59837
C         -0.72164        0.40633       -1.66408
C         -1.75392        0.46180       -0.72386
C         -1.83792       -0.35578        0.39617
C         -0.80434       -1.29452        0.59953
C          0.23166       -1.37224       -0.34482
C          0.29360       -0.52780       -1.48576
S          1.37398       -2.59490        0.09297
C          0.52805       -2.97357        1.50379
C         -0.60206       -2.22168        1.67818
Br         1.08309       -4.29188        2.71339
C         -2.67705        1.56258       -1.02658
O         -3.75673        1.73190       -0.50232
C         -1.99901        2.36662       -2.09849
C         -2.19929        3.68411       -2.27972
C         -3.11158        4.44259       -1.49354
C         -2.87914        5.07947       -0.27289
C         -4.05121        5.69785        0.20778
C         -5.09992        5.55629       -0.67805
S         -4.73501        4.70822       -2.05890
C         -6.24418        6.18137       -0.13679
C         -5.91143        6.69903        1.09212
C         -4.50160        6.44584        1.38005
C         -3.79449        6.82639        2.46666
C         -2.41638        6.51290        2.59267
N         -1.28506        6.25788        2.69081
C         -4.37391        7.58476        3.53746
N         -4.80566        8.20070        4.41704
C         -7.01765        7.28250        1.72366
C         -8.17789        7.23807        0.94300
S         -7.82754        6.42042       -0.57921
C         -9.52915        7.67904        1.17752
C         -9.98277        8.32352        2.26796
C        -11.37875        8.63513        2.52456
C        -11.62700        8.97473        3.80339
C        -10.44273        8.91516        4.64186
S         -9.02901        8.84503        3.62369
C        -10.37868        8.82180        5.98162
C        -11.47817        8.93428        6.91500
C        -11.15207        8.60166        8.17190
C         -9.79369        8.11698        8.30505
S         -8.89624        8.38451        6.84441
C         -9.35349        7.50169        9.40807
C         -8.16802        6.71629        9.49787
S         -7.34210        6.67689       11.05366
C         -6.64653        5.24255       10.58311
C         -6.88729        4.94932        9.25793
N         -7.75592        5.79709        8.62352
C         -6.50493        3.51660        8.91829
C         -6.16421        3.03418       10.32818
C         -6.19332        4.07503       11.23792
S         -5.99263        3.62720       12.82495
C         -5.96779        1.94879       12.36720
C         -6.01867        1.78713       10.98262
C         -6.00522        0.96530       13.39128
C         -4.87166        0.47923       13.91230
C         -4.85110       -0.48890       14.98693
C         -3.82522       -1.29359       15.29315
C         -2.52216       -1.54720       14.66769
C         -2.27469       -1.72986       13.34702
C         -0.99799       -2.12196       12.85292
N          0.04424       -2.43967       12.45619
C         -3.29966       -1.68242       12.35502
N         -4.11496       -1.67542       11.52810
C         -1.60205       -1.93446       15.77243
C         -2.37909       -2.27389       16.88505
C         -3.79720       -1.94957       16.64196
O         -4.71846       -2.12197       17.41149
C         -1.85349       -2.79296       18.06071
C         -0.45198       -2.96956       18.12875
C          0.33595       -2.55891       17.04108
C         -0.21897       -2.01813       15.85628
S          2.01511       -2.81724       17.35402
C          1.69215       -3.51143       18.85710
C          0.36032       -3.52867       19.17433
Br         3.02992       -4.19016       19.97830
H         -2.65319       -0.24249        1.10565
H          1.14218       -0.61945       -2.15485
H         -1.26534       -2.31497        2.53011
H         -1.60054        4.26404       -2.97385
H         -1.91682        5.05254        0.22455
H         -6.96880        7.70006        2.71486
H        -10.26126        7.41118        0.41696
H        -12.14593        8.54629        1.76754
H        -12.61511        9.17978        4.18856
H        -12.46628        9.25847        6.62376
H        -11.85187        8.60772        8.99584
H        -10.00688        7.45582       10.27416
H         -5.63160        3.47691        8.26117
H         -7.34801        2.96431        8.49556
H         -6.05309        0.81686       10.50002
H         -6.98078        0.62007       13.72267
H         -3.91594        0.84791       13.54640
H         -5.71828       -0.47250       15.65218
H         -2.50292       -3.05869       18.89039
H          0.44296       -1.70435       15.05611
H         -0.03467       -3.92951       20.10004
