112

C         -7.35550        7.33550       -9.39401
C         -7.93705        8.30908      -10.13344
C         -7.37148        8.78975      -11.34805
N         -6.90421        9.18323      -12.33494
C         -9.19254        8.88986       -9.78897
N        -10.20932        9.36705       -9.49447
C         -6.11600        6.57459       -9.73039
C         -6.10625        5.39604       -8.97914
C         -5.09088        4.44980       -9.02801
C         -3.98633        4.71863       -9.86573
C         -3.97384        5.91219      -10.60502
C         -5.03109        6.85679      -10.55167
S         -2.52404        6.04903      -11.53642
C         -1.94014        4.57289      -10.96408
C         -2.79092        3.95368      -10.08881
Br        -0.28559        3.85758      -11.47275
C         -7.25550        5.35206       -8.06330
O         -7.57463        4.40326       -7.37900
C         -7.90261        6.70072       -8.17604
C         -8.63094        7.26791       -7.20359
C         -8.90017        6.64930       -5.95761
C         -9.94699        5.80462       -5.59026
C         -9.95375        5.59381       -4.19423
C         -8.93006        6.27923       -3.58217
S         -7.89435        7.07075       -4.60403
C         -9.09888        6.20617       -2.18844
C        -10.19323        5.42578       -1.90558
C        -10.81055        4.99800       -3.16667
C        -11.96730        4.33152       -3.34522
C        -12.47566        4.03444       -4.63988
N        -12.90799        3.78040       -5.68686
C        -12.78598        3.96347       -2.24351
N        -13.47363        3.71410       -1.34125
C        -10.38301        5.30882       -0.50849
C         -9.62575        6.26040        0.18378
S         -8.42418        6.96623       -0.88341
C         -9.67500        6.62505        1.59547
C        -10.71401        6.95562        2.47388
C        -10.22176        7.00301        3.89783
C         -8.82730        7.14107        3.91740
S         -8.16445        6.83224        2.37411
C         -8.06292        7.43274        5.08241
C         -6.54732        7.64380        5.00008
C         -5.73760        6.36304        5.17571
C         -8.72885        7.50999        6.32682
C        -10.09318        7.23037        6.35958
C        -10.85959        6.92445        5.18921
C        -12.27140        6.38562        5.41660
C        -12.33785        4.86711        5.50208
S        -10.67448        7.28555        8.00525
C         -9.16108        7.69938        8.63719
C         -8.21374        7.78893        7.64984
C        -12.15954        7.28515        2.02483
C        -12.83319        6.90123        0.85921
C        -14.18119        7.32044        0.86036
C        -14.51677        7.86708        2.07378
S        -13.19261        8.39377        2.92296
C        -15.92229        7.83284        2.20182
C        -16.45597        7.33052        1.03280
C        -15.39124        7.18106        0.05753
C        -15.51007        7.25666       -1.28471
C        -14.35793        7.35283       -2.11324
N        -13.41209        7.41120       -2.78421
C        -16.77892        7.42677       -1.90938
N        -17.81864        7.58160       -2.40571
C        -17.84509        7.12966        1.11089
C        -18.32413        7.58321        2.33534
S        -17.04099        8.08941        3.40285
C        -19.65523        7.58348        2.79948
C        -20.54082        8.58036        2.65441
C        -20.61304        9.95084        2.09442
C        -19.70535       10.69173        1.42082
C        -19.90365       12.06732        1.09622
N        -20.02972       13.19004        0.82957
C        -18.43970       10.27567        0.91509
N        -17.42011       10.11733        0.40610
C        -22.00627       10.44873        2.42297
C        -22.69532        9.46820        3.13441
C        -21.86169        8.28300        3.31507
O        -22.20563        7.27080        3.89245
C        -24.01247        9.58824        3.57606
C        -24.70450       10.77870        3.26670
C        -24.03494       11.76387        2.53179
C        -22.69576       11.61325        2.09852
S        -25.04866       13.12927        2.23508
C        -26.33807       12.42512        3.06239
C        -26.04874       11.18601        3.56919
Br       -28.00130       13.26286        3.25700
H         -5.13489        3.55627       -8.41115
H         -4.94027        7.77449      -11.12251
H         -2.58268        3.00268       -9.61315
H         -8.95466        8.30189       -7.26556
H        -10.68722        5.45852       -6.30149
H        -11.10980        4.67440       -0.01675
H         -6.22953        8.36971        5.75794
H         -6.28017        8.10787        4.04370
H         -5.88093        5.93081        6.17113
H         -4.66874        6.57674        5.05681
H         -6.00705        5.60349        4.43517
H        -12.97029        6.68313        4.65287
H        -12.69586        6.80815        6.33294
H        -12.34463        4.42535        4.50000
H        -13.27044        4.57024        5.99598
H        -11.50398        4.43809        6.06404
H         -9.03205        7.84475        9.70137
H         -7.18066        8.02709        7.87090
H        -12.45707        6.25596        0.09377
H        -18.48801        6.73955        0.32934
H        -19.95134        6.66870        3.31432
H        -24.48856        8.78137        4.12696
H        -22.27922       12.41839        1.51085
H        -26.75481       10.58275        4.12648
