105

C         -0.53050        1.80345        4.29314
C          0.42873        1.06165        3.69365
C          1.77046        1.01770        4.16385
N          2.86413        0.98312        4.55383
C          0.14557        0.20435        2.58914
N         -0.09735       -0.48090        1.68582
C         -0.38449        2.62336        5.53520
C         -1.66039        2.81740        6.07332
C         -1.92226        3.58875        7.19792
C         -0.82614        4.20537        7.84041
C          0.46340        3.99778        7.32457
C          0.70661        3.21666        6.16277
S          1.64955        4.81466        8.28335
C          0.47588        5.44121        9.32231
C         -0.79859        5.07007        8.98850
Br         0.87785        6.53568       10.78879
C         -2.67826        2.14946        5.24494
O         -3.80459        1.86722        5.59061
C         -1.97603        1.80857        3.96655
C         -2.57244        1.77264        2.76243
C         -3.95527        2.04373        2.54497
C         -5.02678        1.15680        2.42108
C         -6.21581        1.83203        2.06518
C         -6.02289        3.19345        1.99850
S         -4.46215        3.69148        2.27020
C         -7.25337        3.81424        1.69823
C         -8.22066        2.84504        1.55531
C         -7.61582        1.52736        1.75535
C         -8.20189        0.32103        1.64671
C         -7.47359       -0.88277        1.83868
N         -6.87953       -1.86581        1.99036
C         -9.58174        0.18124        1.30726
N        -10.70023        0.06764        1.03274
C         -9.48451        3.40666        1.27863
C         -9.41715        4.80027        1.24470
S         -7.79738        5.37146        1.52481
C        -10.49953        5.73061        1.02049
C        -10.60668        7.03742        1.49917
C        -11.79724        7.66428        1.06048
C        -12.56251        6.77981        0.34731
S        -11.88878        5.28639        0.08495
C        -13.78512        7.39814        0.04775
C        -13.80555        8.68354        0.54518
C        -12.51056        8.96204        1.16635
C        -11.97560       10.11637        1.63207
C        -10.49021       10.02068        1.94007
N         -9.25795        9.94131        2.19559
C        -12.66032       11.47314        1.60514
N        -13.22836       12.59869        1.58279
C        -15.05946        9.29986        0.30091
C        -15.94273        8.41416       -0.33333
S        -15.16338        6.89074       -0.69453
C        -17.33548        8.51168       -0.73785
N        -17.89645        7.51971       -1.40271
C        -19.15680        7.93464       -1.63403
C        -19.36515        9.23343       -1.06568
C        -20.76070        9.65989       -1.35885
O        -21.33271       10.67286       -1.04391
C        -21.28963        8.50456       -2.13438
C        -20.25402        7.51180       -2.25164
N        -20.69756        6.45124       -2.97135
C        -21.91966        6.79616       -3.26620
C        -22.38821        8.10528       -2.76176
C        -18.25512        9.67188       -0.47701
C        -18.01803       10.92450        0.17201
C        -18.14389       12.07880       -0.49978
C        -17.97854       13.39937        0.07573
C        -17.72440       14.52954       -0.60903
C        -17.53620       15.94215       -0.16059
C        -17.63742       16.43959        1.09942
C        -17.44526       17.82125        1.41001
N        -17.29721       18.93699        1.68281
C        -17.95023       15.64749        2.23702
N        -18.21020       15.02171        3.18173
C        -17.24564       16.74731       -1.39838
C        -17.26625       15.89224       -2.50330
C        -17.53602       14.51685       -2.10476
O        -17.59556       13.59704       -2.89292
C        -17.11945       16.29947       -3.82074
C        -16.99316       17.66121       -4.07121
C        -16.93089       18.56970       -2.98092
C        -17.02660       18.09754       -1.64961
C        -16.82362       19.93992       -3.25781
C        -16.83462       20.40597       -4.57470
C        -16.91732       19.50896       -5.63619
C        -16.97403       18.13987       -5.38720
H         -2.94068        3.73015        7.54835
H          1.72448        3.12748        5.79772
H         -1.68167        5.38407        9.53276
H         -1.98980        1.64762        1.85476
H         -4.91671        0.08923        2.56715
H        -10.41039        2.86256        1.13306
H         -9.84510        7.46645        2.13733
H        -15.31766       10.30966        0.58788
H        -22.60465        6.17605       -3.86320
H        -23.34440        8.56991       -2.89581
H        -17.74154       10.90433        1.22314
H        -18.40432       12.02382       -1.55498
H        -18.10822       13.40566        1.15198
H        -17.16194       15.56772       -4.62329
H        -16.97091       18.83399       -0.85648
H        -16.76603       20.66430       -2.44762
H        -16.79444       21.47435       -4.77083
H        -16.94839       19.87459       -6.65930
H        -17.04042       17.45213       -6.22817
