115

C         -3.77207       -3.33510        1.03899
C         -3.30647       -4.16836        1.99911
C         -2.78250       -5.46503        1.71671
N         -2.35159       -6.51764        1.49089
C         -3.25567       -3.80001        3.37516
N         -3.22265       -3.48966        4.49256
C         -3.73754       -3.58005       -0.43616
C         -3.90457       -2.35714       -1.08971
C         -3.92432       -2.20710       -2.47203
C         -3.77484       -3.36844       -3.26152
C         -3.62271       -4.60505       -2.61589
C         -3.61090       -4.73407       -1.20271
S         -3.46362       -5.88849       -3.76290
C         -3.59384       -4.82599       -5.06749
C         -3.76301       -3.52072       -4.69080
Br        -3.51697       -5.38210       -6.85468
C         -4.11344       -1.27158       -0.12205
O         -4.14774       -0.09072       -0.39772
C         -4.24460       -1.94088        1.21962
C         -4.85602       -1.37174        2.27354
C         -5.41161       -0.06238        2.23554
C         -4.83608        1.15532        2.60300
C         -5.73869        2.22381        2.40982
C         -6.94625        1.77866        1.92356
S         -7.06043        0.13688        1.71350
C         -7.80672        2.87949        1.75283
C         -7.15433        4.02752        2.13468
C         -5.79504        3.68097        2.56951
C         -4.81988        4.49440        3.00431
C         -3.55345        4.01326        3.41103
N         -2.51093        3.61497        3.73693
C         -5.03204        5.90833        3.11188
N         -5.19618        7.05083        3.19828
C         -7.99538        5.16039        2.01141
C         -9.26761        4.80766        1.54061
S         -9.35985        3.09381        1.22684
C        -10.41413        5.68222        1.34023
C        -10.47834        7.06030        1.57175
C        -11.76950        7.60505        1.31606
C        -12.61730        6.60078        0.93579
S        -11.95346        5.08995        0.79707
C        -13.90192        7.13371        0.77775
C        -13.89454        8.49140        1.01694
C        -12.52500        8.90279        1.35597
C        -11.97560       10.11637        1.63207
C        -10.49021       10.02068        1.94007
N         -9.25795        9.94131        2.19559
C        -12.66032       11.47314        1.60514
N        -13.22836       12.59869        1.58279
C        -15.21374        9.00263        0.92002
C        -16.15073        7.98202        0.65515
S        -15.36873        6.44261        0.48654
C        -17.60407        8.01789        0.69540
C        -18.56560        7.14139        0.18837
C        -19.77849        7.17073        1.01756
C        -19.84918        8.39144        1.69680
S        -18.37999        9.27657        1.53633
C        -20.98247        8.80163        2.43442
C        -21.04578       10.19069        3.06070
C        -21.64845       11.21142        2.10427
C        -22.06972        7.90829        2.57066
C        -21.97052        6.63813        2.00016
C        -20.84113        6.23262        1.23060
C        -20.74403        4.79913        0.71688
C        -19.68633        3.97611        1.45033
S        -23.39109        5.70461        2.38019
C        -24.13633        6.98269        3.20942
C        -23.32923        8.08912        3.25276
C        -18.29067        6.23951       -0.92124
C        -18.44499        6.52955       -2.23271
C        -18.00049        5.84449       -3.49342
C        -17.42871        4.62199       -3.62890
C        -16.97931        4.09745       -4.87924
N        -16.60590        3.66209       -5.88674
C        -17.20497        3.74625       -2.52574
N        -17.00828        3.03053       -1.64101
C        -18.25340        6.81084       -4.62428
C        -18.78944        7.98298       -4.08651
C        -19.07897        7.82359       -2.66031
O        -19.78691        8.57457       -2.02184
C        -19.04225        9.13211       -4.82394
C        -18.81832        9.10557       -6.20233
C        -18.38116        7.90217       -6.81390
C        -18.08144        6.76997       -6.00969
C        -18.26790        7.86996       -8.21708
C        -18.54911        9.00034       -8.99160
C        -18.91834       10.19194       -8.37659
C        -19.04980       10.24488       -6.98942
H         -4.06784       -1.22830       -2.92185
H         -3.51841       -5.72555       -0.77470
H         -3.87232       -2.69985       -5.38968
H         -5.04073       -1.91513        3.19380
H         -3.81852        1.22563        2.96792
H         -7.72284        6.17796        2.26491
H         -9.60853        7.59098        1.92942
H        -15.49897       10.03205        1.10181
H        -20.05134       10.52540        3.37441
H        -21.63521       10.16059        3.98372
H        -21.04276       11.31752        1.19801
H        -21.70644       12.19221        2.58718
H        -22.66017       10.92489        1.79855
H        -20.54563        4.81134       -0.35822
H        -21.69611        4.26951        0.82377
H        -18.70606        4.46073        1.45684
H        -19.57151        2.99960        0.96749
H        -19.97147        3.80225        2.49370
H        -25.12302        6.86883        3.63790
H        -23.62443        9.00123        3.75719
H        -17.82633        5.30986       -0.61729
H        -19.42305       10.01967       -4.32575
H        -17.72799        5.88305       -6.52499
H        -17.97343        6.95473       -8.72799
H        -18.47837        8.95111      -10.07607
H        -19.11939       11.07707       -8.97571
H        -19.34692       11.18442       -6.52728
