93

C         -4.98178       -1.19704       -2.66443
C         -4.01440       -1.41677       -3.58557
C         -4.00836       -2.56221       -4.43461
N         -4.00796       -3.49967       -5.11822
C         -2.88409       -0.55866       -3.69625
N         -1.97533        0.16557       -3.76464
C         -6.13376       -2.09427       -2.34462
C         -6.55089       -1.80075       -1.04223
C         -7.65138       -2.38200       -0.42882
C         -8.39223       -3.32812       -1.17135
C         -7.96755       -3.65228       -2.47070
C         -6.84046       -3.03973       -3.08320
S         -8.99829       -4.85277       -3.17236
C         -9.98697       -4.90063       -1.80456
C         -9.58732       -4.04296       -0.81593
Br       -11.48416       -6.01699       -1.65249
C         -5.71998       -0.73242       -0.46250
O         -5.58926       -0.48111        0.71624
C         -4.99506       -0.13617       -1.62761
C         -4.69097        1.17100       -1.73395
C         -5.02284        2.15343       -0.74583
S         -6.57113        2.89816       -0.78020
C         -6.23493        3.94547        0.54801
C         -4.94918        3.71133        1.02981
C         -4.23885        2.72078        0.24681
C         -2.80757        2.35571        0.53132
C         -2.08523        3.39156        1.41438
C         -0.79579        2.82282        1.84401
N          0.21444        2.35982        2.18501
C         -2.95336        3.78112        2.62423
C         -2.25651        4.73703        3.51401
N         -1.73128        5.50284        4.19652
C         -4.27168        4.42886        2.16949
C         -7.24429        4.90298        0.99607
C         -8.22195        5.53856        0.22055
C         -9.09329        6.34994        0.99895
C         -8.66480        6.39245        2.29781
S         -7.38430        5.40602        2.65371
C         -9.46647        7.30128        3.00868
C        -10.42933        7.83208        2.17992
C        -10.29960        7.20832        0.85514
C        -11.10902        7.25154       -0.23475
C        -10.71023        6.24015       -1.29703
N        -10.37941        5.40111       -2.17829
C        -12.28015        8.03222       -0.33779
N        -13.23848        8.68106       -0.41385
C        -11.21854        8.77980        2.88329
C        -10.80012        8.93987        4.22086
S         -9.46428        7.85972        4.55953
C        -11.27571        9.82013        5.32150
C        -10.70243        9.83618        6.62622
C        -11.12625       10.66295        7.69977
C        -12.17664       11.58785        7.58474
C        -12.81330       11.64053        6.31097
C        -12.35644       10.74008        5.15629
N        -13.08945       10.94383        4.04669
S        -14.20369       12.11618        4.39048
N        -13.84355       12.43409        5.97069
C        -12.62346       12.46741        8.67663
C        -13.56416       12.04804        9.54360
C        -14.06374       12.90352       10.59301
C        -13.57433       14.27820       10.77672
C        -12.63133       14.84947       10.02683
S        -11.82795       14.02930        8.71418
C        -14.27814       14.81352       11.87739
C        -15.14315       13.86582       12.37441
C        -15.88877       14.32350       13.47498
C        -15.53745       15.63506       13.77203
S        -14.32799       16.26623       12.69767
C        -15.00448       12.67814       11.55666
C        -15.74324       11.45729       11.76959
C        -16.56062       10.90544       10.86282
H         -7.94825       -2.08563        0.57302
H         -6.58956       -3.30530       -4.10532
H        -10.10680       -3.92407        0.12766
H         -4.27508        1.56965       -2.65547
H         -2.26107        2.25524       -0.41547
H         -2.79833        1.36737        1.01109
H         -1.88628        4.29231        0.81611
H         -3.18993        2.87635        3.20360
H         -4.10650        5.47067        1.86131
H         -4.92369        4.44857        3.04740
H         -8.27102        5.38690       -0.84975
H        -12.04081        9.33635        2.45047
H         -9.86322        9.17588        6.85464
H        -10.59447       10.57419        8.64837
H        -14.00144       11.05715        9.45764
H        -12.31843       15.86971       10.22336
H        -16.63372       13.76446       14.02541
H        -15.92642       16.26671       14.55990
H        -15.61714       10.97874       12.73821
H        -16.73852       11.36496        9.89432
H        -17.08348        9.97847       11.07774
