94

C         -6.51020       -1.77765       -3.75242
C         -6.39240       -1.86911       -5.10477
C         -6.26025       -3.10834       -5.79927
N         -6.14994       -4.11247       -6.36648
C         -6.43070       -0.73148       -5.96088
N         -6.45562        0.19503       -6.67385
C         -6.57876       -2.93628       -2.80088
C         -6.98725       -2.46241       -1.55381
C         -7.19603       -3.26374       -0.43475
C         -7.00482       -4.65336       -0.57750
C         -6.56822       -5.14486       -1.81626
C         -6.32308       -4.29953       -2.93147
S         -6.40339       -6.86554       -1.77522
C         -6.96895       -6.94548       -0.18681
C         -7.20588       -5.71658        0.36765
Br        -7.25912       -8.55839        0.72018
C         -7.15555       -1.00753       -1.57242
O         -7.57449       -0.36108       -0.63549
C         -6.72375       -0.54703       -2.94017
C         -6.49274        0.74655       -3.23372
C         -6.61227        1.80091       -2.28393
C         -5.63935        2.29849       -1.44234
C         -6.11986        3.33132       -0.58184
Cl        -5.07751        3.97560        0.61987
C         -7.43973        3.67264       -0.83445
S         -8.06822        2.68615       -2.11091
C         -8.27276        4.69271       -0.21441
C         -7.97829        6.01667        0.06065
Cl        -6.53033        6.86225       -0.30708
C         -9.06709        6.71476        0.66735
C        -10.19999        5.94140        0.83770
S         -9.89989        4.34658        0.25265
C        -11.49799        6.25721        1.35768
C        -11.75135        7.02958        2.42895
C        -13.08009        7.24766        2.96937
C        -13.08839        7.81185        4.18820
C        -11.76190        8.08724        4.70662
S        -10.56592        7.81505        3.43490
C        -11.42607        8.38950        5.97540
C        -12.29336        8.48317        7.13481
C        -11.63123        8.43018        8.30514
C        -10.19472        8.28501        8.14736
S         -9.76110        8.60270        6.48876
C         -9.34369        7.92547        9.12600
C         -7.94859        7.63786        8.94060
C         -7.27745        7.10347        7.85422
C         -5.90103        6.82804        8.08504
Cl        -5.00865        6.02485        6.86097
C         -5.48690        7.20852        9.34756
S         -6.82630        7.89296       10.21819
C         -4.18051        7.09925        9.97953
C         -2.90948        7.32825        9.47642
Cl        -2.45823        7.81126        7.89398
C         -1.89302        7.20197       10.47215
C         -2.39068        6.98100       11.74264
S         -4.05644        6.57836       11.62717
C         -1.64031        6.94747       12.95645
C         -2.04367        7.31919       14.18145
C         -3.28699        7.84047       14.76392
C         -4.09489        8.79471       14.24024
C         -5.33498        9.15413       14.83842
N         -6.36752        9.40464       15.31431
C         -3.72421        9.57145       13.10193
N         -3.41227       10.24191       12.20586
C         -3.29900        7.41461       16.20010
C         -2.00632        6.99188       16.52925
C         -1.15405        6.94440       15.32994
O          0.01793        6.63232       15.29687
C         -1.59002        6.69142       17.82150
C         -2.52388        6.86843       18.86668
C         -3.83810        7.23653       18.53971
C         -4.25845        7.47070       17.20499
S         -4.80924        7.39755       19.96113
C         -3.49360        7.08666       20.97124
C         -2.34986        6.76634       20.29009
Br        -3.58842        7.18717       22.83933
H         -7.52002       -2.82736        0.50659
H         -5.96383       -4.75555       -3.84600
H         -7.55052       -5.56742        1.38414
H         -6.11521        1.06344       -4.19760
H         -4.62854        1.90859       -1.41404
H         -9.01733        7.76202        0.94038
H        -12.34109        5.77392        0.86753
H        -13.97677        6.94140        2.44727
H        -13.99142        8.00994        4.74813
H        -13.36959        8.54340        7.06318
H        -12.11425        8.44419        9.27298
H         -9.74255        7.77081       10.12815
H         -7.75992        6.85420        6.91749
H         -0.83849        7.36027       10.27388
H         -0.62191        6.56837       12.85320
H         -0.56460        6.39149       18.01969
H         -5.29261        7.74312       17.02831
H         -1.41049        6.51959       20.77042
