104

C         -3.63947       -1.56816       -0.28670
C         -3.58483       -2.27020       -1.44793
C         -2.71113       -3.38193       -1.64890
N         -2.00648       -4.27801       -1.82624
C         -4.40882       -1.99219       -2.57494
N         -5.07858       -1.77463       -3.49783
C         -2.85761       -1.86149        0.95719
C         -3.33019       -1.04253        1.98419
C         -2.85546       -1.06637        3.29082
C         -1.82123       -1.97407        3.59574
C         -1.31400       -2.78297        2.56897
C         -1.81319       -2.73640        1.24141
S         -0.04379       -3.80030        3.15062
C         -0.19251       -3.19582        4.71897
C         -1.15533       -2.23085        4.84134
Br         0.85832       -3.78934        6.15081
C         -4.37191       -0.13384        1.50107
O         -4.95473        0.67351        2.19360
C         -4.52252       -0.41649        0.03537
C         -5.27188        0.35733       -0.76556
C         -6.02837        1.56520       -0.39324
C         -7.34050        1.61050        0.12117
O         -8.13665        0.51891        0.36018
C         -8.00002       -0.66486       -0.41084
C         -7.91456        2.87902        0.42535
O         -9.15327        3.05550        1.00846
C         -9.49065        2.13433        2.04283
C         -7.25080        4.07558        0.06029
C         -5.94798        3.99983       -0.44529
C         -5.34015        2.76366       -0.64486
C         -7.88051        5.41667        0.14402
C         -7.63014        6.22837        1.18772
C         -8.19989        7.55183        1.25409
C         -9.20678        8.03177        0.30230
C         -9.54725        7.37767       -0.80725
S         -8.84514        5.84525       -1.26193
C         -9.59109        9.31937        0.73675
C         -8.84900        9.67418        1.83987
C         -9.14170       10.96530        2.31144
C        -10.13268       11.54231        1.52683
S        -10.66759       10.49874        0.24527
C         -7.97349        8.56421        2.13881
C         -6.94999        8.55061        3.14944
C         -5.64786        8.63350        2.82911
C         -4.52314        8.50378        3.77147
C         -4.47759        8.92959        5.11062
O         -5.46796        9.67189        5.72250
C         -5.96990       10.80795        5.02088
C         -3.40564        8.51442        5.96475
O         -3.61974        8.85750        7.28176
C         -2.54164        9.12098        8.16019
C         -2.33386        7.74216        5.44360
C         -2.31456        7.51033        4.06113
C         -3.40196        7.84169        3.25355
C         -1.20803        7.19773        6.23146
C         -0.44451        6.09890        6.10778
C         -0.30739        4.99134        5.15363
C         -1.29665        4.25171        4.59221
C         -1.04367        3.16555        3.70175
N         -0.82635        2.30054        2.95823
C         -2.66636        4.43987        4.93488
N         -3.78577        4.54406        5.22499
C          1.14372        4.62664        5.15253
C          1.72556        5.18411        6.29630
C          0.77487        6.06322        6.98350
O          0.97791        6.66803        8.01585
C          3.03820        4.97415        6.69436
C          3.83446        4.13988        5.88404
C          3.28598        3.62895        4.69594
C          1.94567        3.88061        4.29751
S          4.44852        2.67219        3.84509
C          5.60134        2.87269        5.06199
C          5.18384        3.68900        6.07758
Br         7.28504        2.05340        5.02824
H         -3.27247       -0.40102        4.04170
H         -1.35442       -3.38308        0.50443
H         -1.39211       -1.72482        5.76921
H         -5.33902        0.19311       -1.83465
H         -7.53363       -1.44018        0.20581
H         -7.46379       -0.54050       -1.35253
H         -9.00095       -1.01290       -0.68330
H         -8.61998        1.78373        2.60924
H        -10.05297        1.29649        1.62035
H        -10.15527        2.64343        2.74840
H         -5.40419        4.90377       -0.70918
H         -4.32546        2.73920       -1.03758
H         -7.01718        5.89474        2.02024
H        -10.25289        7.81346       -1.50662
H         -8.68130       11.46541        3.15278
H        -10.57410       12.52514        1.62888
H         -7.28608        8.44108        4.17643
H         -5.36817        8.71597        1.77885
H         -5.91956       11.68022        5.67916
H         -7.03141       10.64456        4.81209
H         -5.43677       11.05205        4.09648
H         -2.91165        9.75448        8.97229
H         -1.72841        9.67007        7.67447
H         -2.19907        8.19042        8.62347
H         -1.47323        7.01551        3.58457
H         -3.37972        7.52632        2.21120
H         -0.87873        7.87781        7.00655
H          3.42359        5.42705        7.60447
H          1.59122        3.47153        3.35811
H          5.78951        3.94312        6.93965
