79

C         -1.38356        0.72199       -0.87593
C         -1.15158       -0.59666       -1.10470
C          0.15009       -1.16690       -1.18697
N          1.20834       -1.64550       -1.25682
C         -2.19207       -1.54197       -1.30333
N         -3.03273       -2.32910       -1.46542
C         -0.31892        1.76947       -0.69262
C         -0.93340        3.01806       -0.60993
C         -0.24887        4.22056       -0.43925
C          1.15321        4.17162       -0.28755
C          1.78604        2.92274       -0.34230
C          1.07014        1.71438       -0.56616
S          3.48831        3.07960       -0.07370
C          3.36244        4.74681        0.16174
C          2.09447        5.22683       -0.02922
Br         4.80265        5.82464        0.68478
C         -2.39479        2.89705       -0.66809
O         -3.15638        3.83904       -0.59342
C         -2.70567        1.42697       -0.80377
C         -3.96761        0.94719       -0.79981
C         -5.13651        1.75864       -0.67829
S         -5.80850        2.07190        0.86450
C         -6.96982        3.21258        0.26788
C         -6.94028        3.18627       -1.12212
C         -5.94529        2.29659       -1.65802
N         -7.77990        3.98240       -1.97049
O         -7.61794        5.20787       -1.93188
O         -8.55401        3.36518       -2.71336
C         -7.81737        3.97454        1.18973
S         -9.42499        4.42316        0.73205
C         -9.72603        5.23734        2.19133
C         -8.67953        5.13291        3.08036
C         -8.69622        5.70245        4.46402
C         -7.57907        4.39950        2.49769
C         -6.41007        4.10075        3.27104
C         -5.18128        4.61454        3.09541
C         -4.08992        4.22177        3.96188
C         -2.83000        4.67410        3.86513
C         -1.79653        4.24040        4.80206
N         -2.12688        3.81918        6.05040
N         -1.17241        3.38562        7.02750
C          0.16461        3.33573        6.80397
C          0.59533        3.74509        5.51991
C         -0.41555        4.21901        4.48786
N          0.16237        4.56920        3.32183
S          1.79304        4.33443        3.50315
N          1.85649        3.76307        5.04977
C          1.05693        2.90360        7.87219
C          2.39195        3.23924        8.11514
C          2.87211        2.61813        9.28658
C          1.89975        1.85405        9.89035
S          0.44788        1.81457        9.09000
C          2.41709        1.31887       11.08788
C          3.72118        1.74173       11.23834
C          4.09384        2.56901       10.09010
C          5.28506        3.13867        9.82467
C          5.50342        3.90503        8.64783
N          5.68112        4.53120        7.68760
C          6.39261        2.99305       10.70138
N          7.29915        2.87516       11.41867
C          4.28375        1.27603       12.44544
C          3.35784        0.51550       13.14946
S          1.83832        0.37669       12.32947
H         -0.78916        5.16131       -0.37692
H          1.64048        0.79445       -0.59071
H          1.82110        6.27063        0.07182
H         -4.18460       -0.11074       -0.85794
H         -5.79104        2.13877       -2.71960
H        -10.67444        5.73583        2.34506
H         -9.60095        6.29164        4.64536
H         -7.83250        6.35657        4.62173
H         -8.66429        4.89618        5.20435
H         -6.57775        3.39908        4.08696
H         -4.98749        5.32586        2.29531
H         -4.33660        3.49492        4.73719
H         -2.53637        5.37641        3.09124
H          2.95068        3.91776        7.48078
H          5.28147        1.46668       12.82140
H          3.48747        0.03440       14.10969
