98

C         -3.99936        2.53620        4.56008
C         -4.30283        2.95508        5.81144
C         -3.67362        2.41900        6.97180
N         -3.17350        1.95861        7.91400
C         -5.20657        4.02502        6.05433
N         -5.93214        4.90387        6.28729
C         -2.91163        1.58390        4.20155
C         -2.50321        1.85688        2.89444
C         -1.46296        1.19849        2.25277
C         -0.80864        0.16819        2.96392
C         -1.25951       -0.15582        4.25391
C         -2.32299        0.53115        4.88800
S         -0.34999       -1.46365        4.92142
C          0.64408       -1.54866        3.56117
C          0.29798       -0.66235        2.57694
Br         2.08179       -2.74002        3.41851
C         -3.37368        2.87284        2.28598
O         -3.17127        3.41958        1.22258
C         -4.48774        3.08429        3.27749
C         -5.74053        3.43478        2.93710
C         -6.13270        3.57594        1.57290
C         -6.63728        2.62480        0.70728
O         -6.88762        1.36789        1.16245
C         -8.20628        0.92203        0.84919
C         -6.74807        3.10181       -0.64553
O         -7.13277        2.36515       -1.72180
C         -6.36543        1.18107       -1.91681
C         -6.48015        4.46442       -0.76777
S         -6.12243        5.10291        0.82661
C         -6.49197        5.37384       -1.90260
C         -5.67728        6.44824       -1.86406
C         -5.73871        7.50851       -2.82376
C         -6.47488        7.39941       -4.08133
C         -7.29680        6.38854       -4.35927
S         -7.61246        5.07772       -3.23910
C         -6.21226        8.59160       -4.79338
C         -5.42999        9.42145       -4.02504
C         -5.12826       10.64780       -4.63555
C         -5.71025       10.69349       -5.89549
S         -6.60764        9.25147       -6.27677
C         -5.16473        8.74300       -2.78229
C         -4.40352        9.30096       -1.69114
C         -4.86601        9.38006       -0.43037
C         -4.11235        9.89453        0.67421
C         -2.79002       10.29867        0.80222
O         -2.01235       10.33364       -0.31460
C         -0.61578       10.23323       -0.11520
C         -2.45665       10.73090        2.13621
O         -1.26302       11.31927        2.42401
C         -0.65452       10.89706        3.63376
C         -3.55234       10.71331        2.99266
S         -4.93992       10.12903        2.16578
C         -3.74448       11.35456        4.25027
C         -3.44198       10.90838        5.47817
C         -2.90823        9.68304        6.10053
C         -3.21725        8.39842        5.79674
C         -2.63032        7.26679        6.43664
N         -2.14866        6.32023        6.90663
C         -4.26126        8.04797        4.89526
N         -5.14114        7.66826        4.24165
C         -2.21271       10.11123        7.36472
C         -2.52934       11.45248        7.60122
C         -3.31779       12.00731        6.49688
O         -3.70710       13.15447        6.42082
C         -2.17592       12.15799        8.74683
C         -1.51686       11.44787        9.77113
C         -1.16190       10.11050        9.53857
C         -1.46101        9.43646        8.32272
S         -0.37723        9.43245       10.92311
C         -0.59330       10.84678       11.81933
C         -1.16076       11.86364       11.09993
Br        -0.11755       11.00304       13.62452
H         -1.17850        1.46571        1.23878
H         -2.64597        0.21471        5.87346
H          0.81058       -0.58403        1.62576
H         -6.54345        3.46578        3.66639
H         -8.62565        0.45272        1.74426
H         -8.15361        0.15615        0.07180
H         -8.88584        1.72409        0.53830
H         -7.02935        0.31449       -1.84274
H         -5.52940        1.05998       -1.21956
H         -5.96401        1.19715       -2.93428
H         -4.94444        6.58026       -1.07439
H         -7.85592        6.37520       -5.28945
H         -4.53667       11.44818       -4.20926
H         -5.66293       11.49873       -6.61545
H         -3.42478        9.66734       -1.97728
H         -5.87669        9.02755       -0.22261
H         -0.16217       10.06704       -1.09786
H         -0.35973        9.37891        0.51874
H         -0.20040       11.16747        0.27037
H          0.42823       11.00413        3.52074
H         -0.86321        9.84869        3.87219
H         -0.95292       11.55824        4.45092
H         -4.06445       12.39398        4.14425
H         -2.46206       13.19957        8.86894
H         -1.14854        8.40390        8.22028
H         -1.36708       12.84805       11.50382
