96

C         -3.96205       -2.04392        1.84468
C         -3.76513       -2.73950        0.69601
C         -2.91155       -3.87611        0.60553
N         -2.22741       -4.80971        0.52121
C         -4.35749       -2.37347       -0.54747
N         -4.83280       -2.07938       -1.56413
C         -3.24545       -2.26763        3.14218
C         -3.49722       -1.18320        3.98486
C         -2.93488       -1.02602        5.24896
C         -2.03628       -2.01794        5.69774
C         -1.80147       -3.12898        4.87520
C         -2.41396       -3.28309        3.60469
S         -0.68532       -4.22395        5.61153
C         -0.48705       -3.21926        6.95253
C         -1.26409       -2.09276        6.90770
Br         0.68708       -3.60934        8.35880
C         -4.42695       -0.23506        3.35978
O         -4.78927        0.80567        3.86741
C         -4.80376       -0.83229        2.03154
C         -5.80300       -0.34330        1.28101
C         -6.56919        0.81520        1.59540
C         -7.24410        1.78527        1.79059
C         -8.06679        2.93867        1.95366
S         -9.29374        3.35759        0.84214
C         -9.70094        4.76846        1.71670
C         -8.92735        4.90646        2.84954
C         -7.98044        3.84330        2.98830
C        -10.73947        5.65596        1.30192
C        -11.65896        6.33687        0.93437
C        -12.81785        7.03861        0.49958
C        -12.77177        8.27581       -0.01500
C        -13.96191        8.97069       -0.48285
C        -14.00342        9.92212       -1.42986
C        -15.21229       10.55339       -1.91208
C        -15.03539       11.28098       -3.02687
C        -13.66974       11.25957       -3.52317
S        -12.62183       10.47561       -2.33504
C        -13.23766       11.66844       -4.73214
C        -14.02505       12.25611       -5.80265
C        -13.38395       12.31197       -6.98247
C        -12.04977       11.75544       -6.93470
S        -11.58364       11.42538       -5.28343
C        -11.28325       11.46194       -7.99748
C        -10.04793       10.76073       -7.86254
C         -9.07704       10.10955       -7.58507
C         -7.99610        9.31965       -7.09411
S         -6.48138        9.97504       -6.66452
C         -5.89844        8.45722       -6.13135
C         -6.83593        7.46227       -6.29103
C         -8.05304        7.96333       -6.84996
C         -4.57910        8.29387       -5.62058
C         -3.32391        8.30594       -5.26788
C         -1.86065        8.32002       -4.85672
C         -0.92163        7.63893       -5.52122
C          0.46406        7.64429       -5.11339
C          0.98160        7.23817       -3.94370
C          0.42611        6.66085       -2.70510
C         -0.62888        5.81647       -2.57423
C         -1.06936        5.31101       -1.31708
N         -1.43882        4.90313       -0.29511
C         -1.33981        5.26299       -3.67932
N         -1.92616        4.74241       -4.53549
C          1.41580        6.97099       -1.62157
C          2.58945        7.44875       -2.21257
C          2.40908        7.61041       -3.66304
O          3.24533        8.01607       -4.44335
C          3.75295        7.74685       -1.50759
C          3.74474        7.54696       -0.10801
C          2.55929        7.10583        0.49785
C          1.37997        6.83083       -0.23883
S          2.75197        6.94327        2.20699
C          4.37029        7.41264        2.13217
C          4.78963        7.72085        0.86518
Br         5.47779        7.50025        3.64030
H         -3.16581       -0.15253        5.85338
H         -2.18984       -4.17796        3.03758
H         -1.27542       -1.33579        7.68284
H         -6.11743       -0.82113        0.36241
H         -9.02737        5.72740        3.54931
H         -7.26883        3.75516        3.80191
H        -13.75809        6.49913        0.56147
H        -11.81610        8.78909       -0.10966
H        -14.89860        8.64537       -0.03331
H        -16.17075       10.41576       -1.43058
H        -15.84124       11.79000       -3.53625
H        -15.04435       12.58982       -5.66942
H        -13.82703       12.68483       -7.89580
H        -11.62640       11.67848       -9.00339
H         -6.66746        6.42678       -6.01988
H         -8.92958        7.35652       -7.04339
H         -1.63419        8.92728       -3.98514
H         -1.17332        7.07807       -6.41969
H          1.12851        8.08999       -5.85835
H          4.63826        8.10859       -2.02410
H          0.50146        6.50694        0.30539
H          5.79517        8.04600        0.62644
