92

C         -0.57780        0.72789        1.64430
C          0.23275        0.90887        0.55709
C          0.62908       -0.32509       -0.09490
C          1.44983       -0.30711       -1.32776
C          2.43525       -1.26226       -1.58995
C          3.18611       -1.21461       -2.77269
C          2.96127       -0.20604       -3.71098
C          2.02072        0.78484       -3.45716
C          1.28729        0.74044       -2.26456
O          1.77431        1.84965       -4.28523
C          2.03913        1.63270       -5.67134
O          4.10135       -2.22164       -2.93562
C          5.19724       -1.92146       -3.79688
C          0.09734       -1.44918        0.57512
S         -0.90384       -0.90674        1.90579
C          0.07024       -2.94097        0.31411
C          0.01072       -3.38433       -1.01195
C         -0.19086       -4.72942       -1.31577
C         -0.40653       -5.67818       -0.30991
C         -0.29911       -5.28084        1.03716
C         -0.00647       -3.91950        1.35419
N          0.20321       -3.59830        2.65786
C          0.09760       -4.54858        3.62132
C         -0.24106       -5.85186        3.30706
N         -0.45373       -6.21050        2.02245
C         -0.37010       -6.93414        4.33688
C          0.47468       -4.13322        5.00926
C         -0.73763       -7.07302       -0.70720
N         -1.01465       -8.07685        0.20935
C         -1.30037       -9.25419       -0.42235
C         -1.22752       -9.02822       -1.77586
C         -0.87164       -7.66898       -1.95717
C         -1.60880      -10.46782        0.24067
C         -1.85783      -11.51755        0.77616
C         -2.14148      -12.76490        1.39500
C         -1.69722      -14.00325        0.96084
C         -0.83045      -14.25404       -0.24270
C          0.65501      -14.20063        0.08446
C         -2.17494      -15.04410        1.82766
C         -2.93042      -14.57844        2.88881
S         -3.08287      -12.87212        2.81548
C         -3.51606      -15.27648        3.97797
C         -4.00408      -16.51690        3.83397
C         -4.49917      -17.20037        5.04256
N         -5.00246      -16.55645        6.07051
C         -5.24384      -17.53918        6.96683
C         -4.86439      -18.81584        6.42601
C         -5.11394      -19.85916        7.45729
O         -4.91139      -21.05298        7.39969
C         -5.66610      -19.06633        8.58646
C         -5.70321      -17.67796        8.20486
N         -6.18982      -16.92240        9.22100
C         -6.43724      -17.80881       10.14446
C         -6.13054      -19.22036        9.81922
C         -4.41487      -18.69654        5.17856
C         -3.88739      -19.72666        4.33302
C         -3.89592      -19.77987        2.99608
H         -1.01051        1.48618        2.28240
H          0.52179        1.89929        0.22514
H          2.64568       -2.05097       -0.87245
H          3.53166       -0.18866       -4.62877
H          0.57089        1.54058       -2.08642
H          1.78740        2.54771       -6.21632
H          1.41042        0.82323       -6.05746
H          3.09762        1.43264       -5.86728
H          5.93206       -2.72454       -3.69563
H          5.68246       -0.98218       -3.50754
H          4.88476       -1.89232       -4.84649
H          0.09323       -2.68757       -1.84140
H         -0.20839       -5.01849       -2.36329
H          0.49051       -6.93574        5.01278
H         -0.40878       -7.91974        3.85947
H         -1.28710       -6.80476        4.92042
H         -0.25263       -4.48565        5.74655
H          0.52952       -3.04281        5.08546
H          1.46179       -4.54003        5.25279
H         -0.99468       -7.92755        1.21181
H         -1.40577       -9.75942       -2.55373
H         -0.73487       -7.17999       -2.91076
H         -1.05622      -13.52483       -1.02958
H         -1.06889      -15.23953       -0.66157
H          0.94008      -13.22609        0.49489
H          1.24726      -14.37379       -0.81983
H          0.92691      -14.96655        0.81879
H         -1.93422      -16.09192        1.68972
H         -3.54161      -14.78089        4.94759
H         -4.02681      -17.01975        2.88188
H         -6.85365      -17.56495       11.13327
H         -6.25570      -20.08744       10.43589
H         -3.47994      -20.59202        4.86014
H         -4.34093      -19.02400        2.36217
H         -3.48177      -20.64618        2.48587
