134

C          3.65372       -3.30206        3.95446
C          2.79397       -3.71798        4.91376
C          3.23441       -4.36286        6.10179
N          3.61792       -4.89777        7.05545
C          1.41907       -3.33527        4.87961
N          0.32754       -2.93790        4.88909
C          5.10423       -3.08172        4.16138
C          5.45075       -1.90529        3.47089
C          6.69490       -1.30814        3.57300
C          7.65077       -1.94899        4.36423
C          7.35427       -3.17957        4.99077
C          6.07587       -3.75177        4.89020
Cl         8.53478       -4.04580        5.91163
Cl         9.18966       -1.18123        4.53144
C          4.33066       -1.47623        2.60040
O          4.30918       -0.51080        1.86979
C          3.29913       -2.54500        2.75199
C          2.48085       -2.83103        1.72067
C          1.80112       -4.06532        1.56581
C          0.46591       -4.35409        1.70019
C          0.06098       -5.68131        1.26346
C         -1.22167       -6.28959        1.15102
C         -2.44651       -5.43599        1.30770
C         -2.71570       -4.34282        2.12520
C         -4.01240       -3.76849        1.93091
C         -4.75116       -4.47208        1.01174
S         -3.79926       -5.65259        0.24146
C         -6.17467       -4.29392        0.60998
C         -1.32536       -7.67542        0.83757
C         -0.20350       -8.43685        0.47070
C          1.06989       -7.79273        0.46313
C          1.18658       -6.43585        0.88977
S          2.62291       -5.45546        1.03970
C          2.27802       -8.58234        0.05882
C          2.62117       -9.90407        0.32569
C          3.89399      -10.29330       -0.20302
C          4.53257       -9.24715       -0.82669
S          3.49463       -7.90183       -0.96847
C          5.91128       -9.18731       -1.39534
C         -0.61000       -9.79311        0.11622
C         -1.95186      -10.06737        0.28409
S         -2.74218       -8.68819        0.88318
C         -2.68863      -11.27846        0.06363
C         -2.92592      -12.07683        1.12476
C         -3.69425      -13.29247        1.01258
C         -4.27287      -13.73144       -0.26714
C         -4.14540      -13.07065       -1.41767
S         -3.24380      -11.58555       -1.57459
C         -4.97412      -14.92615       -0.00380
C         -4.87268      -15.23376        1.33064
C         -5.51856      -16.43569        1.67155
C         -6.13286      -16.97833        0.55346
S         -5.87026      -16.03308       -0.87822
C         -4.08731      -14.19323        1.96429
C         -3.78658      -14.12721        3.37880
C         -4.58912      -14.62913        4.33176
C         -4.26793      -14.49610        5.70153
C         -3.56960      -15.35383        6.51628
C         -3.42189      -14.88757        7.87868
C         -2.79219      -15.48153        9.00428
C         -1.96179      -16.72073        8.81573
C         -1.12883      -17.07460        7.75560
C         -0.36213      -18.26223        7.98549
C         -0.57826      -18.77130        9.24387
S         -1.90473      -17.99801        9.98148
C          0.14665      -19.86415        9.95508
C         -2.87684      -14.83241       10.25873
C         -3.35763      -13.52315       10.39254
C         -4.01021      -12.94206        9.27614
C         -4.06387      -13.64636        8.04812
S         -4.88225      -13.19240        6.58983
C         -4.64941      -11.59899        9.40316
C         -4.70802      -10.54146        8.50356
C         -5.40614       -9.39799        9.00034
C         -5.83573       -9.57811       10.29447
S         -5.55951      -11.17934       10.81478
C         -6.48439       -8.58788       11.20283
C         -2.99452      -12.99764       11.70252
C         -2.41323      -13.91945       12.54797
S         -2.57900      -15.45166       11.83506
C         -1.93490      -13.76032       13.88434
C         -0.93695      -14.48018       14.43351
C         -0.59157      -14.62390       15.86473
C         -0.51895      -13.62785       16.78241
C         -0.04285      -13.85257       18.10087
N          0.35211      -14.05302       19.17299
C         -0.84848      -12.29064       16.46065
N         -1.13920      -11.19336       16.17764
C         -0.15449      -16.04315       16.03363
C          0.09110      -16.57412       14.75689
C         -0.14169      -15.54883       13.73787
O          0.33107      -15.55636       12.62233
C          0.43315      -17.89410       14.51333
C          0.54868      -18.73658       15.61527
C          0.33134      -18.23401       16.91665
C         -0.02895      -16.88656       17.12785
Cl         0.47047      -19.24393       18.31413
Cl         0.93122      -20.39380       15.31298
H          6.90930       -0.37876        3.05336
H          5.87210       -4.70183        5.37826
H          2.44686       -2.14422        0.87008
H         -0.20299       -3.59691        2.07877
H         -2.03214       -3.93548        2.85650
H         -4.38601       -2.90693        2.47260
H         -6.64896       -3.48323        1.17264
H         -6.74739       -5.20885        0.80247
H         -6.24889       -4.05716       -0.45576
H          2.00267      -10.58590        0.89497
H          4.32933      -11.28009       -0.09072
H          6.48658      -10.08504       -1.14371
H          6.46160       -8.32649       -0.99679
H          5.87694       -9.10023       -2.48549
H          0.06547      -10.55789       -0.24457
H         -2.55912      -11.80135        2.10840
H         -4.61860      -13.44808       -2.31977
H         -5.55811      -16.89410        2.65120
H         -6.71888      -17.88591        0.49942
H         -2.87834      -13.59895        3.66207
H         -5.53492      -15.10403        4.09653
H         -3.18558      -16.29624        6.15056
H         -1.01205      -16.48382        6.85625
H          0.36504      -18.66859        7.29191
H         -0.47151      -20.76339       10.02861
H          0.42762      -19.55198       10.96844
H          1.07336      -20.12736        9.43286
H         -4.26427      -10.56264        7.51632
H         -5.54835       -8.47924        8.44272
H         -7.04164       -7.83820       10.63139
H         -5.72383       -8.06261       11.79230
H         -7.18302       -9.06585       11.89676
H         -3.13898      -11.96665       12.00132
H         -2.50487      -13.05750       14.48623
H          0.56683      -18.25135       13.49590
H         -0.22472      -16.55079       18.14165
