91

C         -1.51332        1.84382        6.09338
C         -1.19435        2.23806        4.84017
C         -1.90365        3.28855        4.18580
N         -2.50894        4.13309        3.67852
C         -0.08795        1.71370        4.11808
N          0.83509        1.36156        3.49730
C         -2.44736        2.53514        7.00843
C         -1.98348        2.33821        8.32116
C         -2.59348        2.91467        9.42044
C         -3.75204        3.66539        9.19498
C         -4.28528        3.79147        7.89381
C         -3.63150        3.22129        6.79316
Cl        -5.76808        4.62349        7.58100
Cl        -4.51385        4.38691       10.56681
C         -0.89650        1.32961        8.32701
O         -0.27261        0.93685        9.28854
C         -0.85189        0.82424        6.91181
C         -0.66779       -0.49368        6.71710
C         -1.13740       -1.20625        5.56209
S         -2.68925       -0.84643        4.87433
C         -2.51405       -1.99076        3.64164
C         -1.37006       -2.74534        3.77363
C         -1.01343       -3.85518        2.84137
C         -0.59383       -2.30634        4.90528
C          0.64983       -2.90132        5.28205
C          0.75810       -3.94668        6.11698
C          2.02570       -4.52971        6.47342
C          2.87727       -5.06408        5.58174
C          4.08963       -5.69428        5.98259
C          5.27835       -5.82048        5.25491
C          6.25060       -6.54617        5.97809
C          5.76244       -6.94334        7.19763
S          4.20552       -6.50713        7.52291
C          6.74656       -7.67953        7.87291
C          7.86619       -7.76422        7.08333
C          7.62259       -7.03248        5.83593
C          8.45916       -6.83696        4.79846
C          8.07542       -6.08190        3.65647
N          7.75283       -5.46644        2.72537
C          9.77903       -7.36805        4.80114
N         10.85354       -7.80458        4.79985
C          8.86943       -8.53524        7.71906
C          8.45492       -9.01595        8.97417
S          6.83914       -8.42328        9.34145
C          9.15055       -9.85006        9.92988
C          8.43829      -10.68854       10.71254
C          9.04124      -11.53807       11.70397
C         10.48769      -11.55947       11.93139
C         11.36247      -10.81686       11.25485
S         10.90606       -9.70710        9.99173
C         10.71345      -12.47975       12.97451
C          9.51562      -13.01194       13.39075
C          9.66292      -13.92410       14.44903
C         10.99980      -14.05317       14.78860
S         12.03388      -13.05715       13.81967
C          8.47067      -12.41722       12.58419
C          7.04977      -12.66402       12.69909
C          6.45802      -13.54691       13.51676
C          5.05316      -13.68675       13.58673
C          4.40284      -14.83541       13.95798
C          3.02300      -14.64732       13.95817
C          2.40367      -15.85159       14.33606
C          3.28741      -16.89576       14.61043
S          4.99283      -16.48949       14.41516
C          2.94185      -18.28201       15.04406
F          1.10691      -15.98280       14.42732
C          2.56164      -13.42545       13.61622
S          3.91261      -12.42252       13.28561
H         -2.19918        2.75688       10.41953
H         -4.07714        3.29859        5.80532
H         -0.27286       -1.10180        7.53260
H         -3.28092       -2.08282        2.88517
H         -1.81992       -4.03136        2.12076
H         -0.84715       -4.78749        3.38920
H         -0.10918       -3.60294        2.27935
H          1.54557       -2.46876        4.84430
H         -0.11275       -4.38635        6.59426
H          2.23275       -4.54074        7.54204
H          2.64868       -5.03672        4.51900
H          5.39879       -5.39651        4.26421
H          9.84270       -8.76465        7.30577
H          7.35987      -10.75128       10.62436
H         12.42224      -10.88107       11.47904
H          8.88525      -14.46871       14.96407
H         11.41598      -14.68132       15.56393
H          6.42128      -12.06248       12.04840
H          7.03810      -14.19849       14.15271
H          1.85660      -18.42210       15.08506
H          3.34343      -18.48359       16.04252
H          3.34836      -19.02130       14.34634
H          1.55162      -13.05210       13.54278
