84

C          2.56906       -8.95838       -4.59842
C          2.08405      -10.10741       -5.12521
C          2.64149      -10.70740       -6.28709
N          3.10637      -11.18164       -7.23855
C          0.85510      -10.65923       -4.65265
N         -0.17081      -11.03965       -4.27036
C          3.53506       -8.04713       -5.25819
C          3.11088       -6.73439       -4.98756
C          3.69546       -5.61838       -5.55844
C          4.81204       -5.82318       -6.37058
C          5.32436       -7.12539       -6.56623
C          4.67657       -8.24798       -6.01801
Cl         6.77350       -7.40813       -7.46680
Cl         5.53579       -4.43010       -7.09165
C          2.04517       -6.74418       -3.96379
O          1.43250       -5.78249       -3.55793
C          1.92035       -8.17891       -3.53607
C          1.51190       -8.61297       -2.33181
C          0.99868       -7.79366       -1.27986
C         -0.18251       -6.89284       -1.34876
N         -0.46035       -6.21689       -0.27028
C          0.51760       -6.60741        0.58521
C          1.35649       -7.61252       -0.00687
C          2.35233       -8.07097        1.01873
S          3.33897       -9.39902        0.89448
C          2.10794       -7.12214        2.17563
C          0.94690       -6.31769        1.80524
N          0.58379       -5.47736        2.79945
C          1.47253       -5.72886        3.70846
C          2.50578       -6.77314        3.40597
C          3.45325       -7.17890        4.39019
C          3.17452       -7.05021        5.86008
N          4.06500       -7.50040        6.69033
C          5.01695       -7.97759        5.85825
C          4.67324       -7.72654        4.46159
C          5.81573       -8.24857        3.63922
S          6.35241       -7.78663        2.13730
C          6.55008       -9.09196        4.63365
C          6.09102       -8.75338        5.95388
N          6.73163       -9.49406        6.89584
C          7.43590      -10.32102        6.17520
C          7.33901      -10.15680        4.70277
C          7.68667      -11.11578        3.73207
C          9.00294      -11.39078        3.11847
N          9.04097      -12.34600        2.22967
C          7.75204      -12.77998        2.18896
C          6.93974      -12.03056        3.11427
C          5.52797      -12.52644        3.05685
S          4.19842      -11.98737        3.89860
C          5.63138      -13.60180        2.02137
C          6.99885      -13.66636        1.54983
N          7.12668      -14.61038        0.58572
C          5.91997      -15.09127        0.49374
C          4.88918      -14.51218        1.39756
C          3.51182      -14.89756        1.46166
C          2.87286      -15.38779        2.53607
C          1.48616      -15.87848        2.65615
C          0.35957      -15.28290        2.18637
C         -0.94336      -15.65117        2.65529
N         -1.97646      -15.95800        3.07175
C          0.41346      -14.13371        1.34962
N          0.47899      -13.19346        0.67122
C          1.47940      -16.85319        3.77221
C          2.58243      -16.56942        4.58428
C          3.52988      -15.70351        3.86068
O          4.63866      -15.40640        4.25011
C          2.72374      -17.09193        5.85558
C          1.76106      -18.00884        6.28350
C          0.75742      -18.45580        5.39775
C          0.61550      -17.87616        4.12850
Cl        -0.35047      -19.71156        5.82260
Cl         1.83582      -18.53730        7.92496
H          3.30424       -4.62469       -5.35989
H          5.08943       -9.24025       -6.18148
H          1.62999       -9.66251       -2.06331
H         -0.77754       -6.85309       -2.27410
H          1.48097       -5.21328        4.67945
H          2.23438       -6.59424        6.20155
H          8.06826      -11.11881        6.59468
H          9.87739      -10.79354        3.41890
H          5.62501      -15.89151       -0.21083
H          2.99514      -14.81889        0.50658
H          3.54123      -16.77495        6.49603
H         -0.17277      -18.21844        3.46236
