92

C         21.69368      -19.54842       -7.12140
C         21.39661      -18.52227       -6.32284
C         22.24460      -17.39359       -6.05698
C         21.66302      -16.46659       -5.27803
C         20.31067      -16.80075       -4.87745
S         19.87741      -18.40380       -5.48691
C         19.46380      -16.01229       -4.18717
C         19.73083      -14.66314       -3.71894
C         18.65470      -14.04494       -3.21246
C         17.46486      -14.86169       -3.23299
S         17.81480      -16.47542       -3.78282
C         16.24039      -14.41079       -2.93709
C         15.01588      -15.19394       -2.93874
C         13.78658      -14.68919       -3.10500
C         12.55647      -15.41406       -2.89020
C         11.50797      -14.59769       -2.69290
C         11.86522      -13.18834       -2.76711
S         13.45128      -13.02817       -3.50955
C         11.21917      -12.15154       -2.20337
C         10.04199      -12.22581       -1.36145
C          9.86563      -11.13387       -0.59987
C         10.88430      -10.12448       -0.80126
S         11.84159      -10.50220       -2.20941
C         11.09698       -9.07414        0.00764
C         12.19656       -8.12357       -0.08398
C         13.49657       -8.38733        0.13448
C         14.56506       -7.42518       -0.00669
C         15.78977       -7.94756        0.15862
C         15.78622       -9.37249        0.43539
S         14.12811       -9.93878        0.62745
C         16.86194      -10.18065        0.51362
C         18.25404       -9.79013        0.38637
C         19.11778      -10.81167        0.47778
C         18.47693      -12.09126        0.67378
S         16.74520      -11.92046        0.75580
C         19.12915      -13.25185        0.82659
C         18.49850      -14.54774        1.01771
C         19.02853      -15.59012        1.67087
C         18.36777      -16.86154        1.84063
C         19.10406      -17.76412        2.50384
C         20.41795      -17.27663        2.88673
S         20.57445      -15.57216        2.46911
C         21.42461      -18.00413        3.40382
C         21.40398      -19.42436        3.69768
C         22.61450      -19.93753        3.96231
C         23.67581      -18.95849        3.91184
S         23.03167      -17.35103        3.70949
C         24.98319      -19.23691        4.01046
C         26.04110      -18.24596        3.93453
C         26.98007      -18.03775        4.86726
C         27.97518      -16.99734        4.78856
C         28.76256      -16.92618        5.87022
C         28.45129      -17.91068        6.89493
S         27.11640      -18.93177        6.35881
C         29.06907      -18.04235        8.08510
C         30.17856      -17.23623        8.56583
C         30.60906      -17.57235        9.78970
C         29.87036      -18.66189       10.37236
S         28.62847      -19.24490        9.30325
C         30.08528      -19.18267       11.58272
H         22.63905      -19.60471       -7.64749
H         20.98734      -20.35805       -7.28067
H         23.24428      -17.30402       -6.46011
H         22.15666      -15.54901       -4.99410
H         20.69572      -14.18422       -3.79735
H         18.65561      -13.02761       -2.84322
H         16.13507      -13.36232       -2.65716
H         15.12108      -16.25027       -2.70145
H         12.51400      -16.49253       -2.82089
H         10.51540      -14.94731       -2.45039
H          9.41880      -13.10576       -1.29474
H          9.08680      -11.03675        0.14248
H         10.42731       -8.90200        0.84673
H         11.89447       -7.11384       -0.35047
H         14.38401       -6.38816       -0.25202
H         16.69595       -7.36720        0.06068
H         18.57115       -8.76721        0.24397
H         20.19235      -10.70233        0.41842
H         20.21763      -13.24171        0.81959
H         17.50517      -14.66419        0.58739
H         17.37614      -17.05683        1.45520
H         18.76186      -18.76914        2.70292
H         20.50289      -20.02014        3.67634
H         22.79494      -20.98182        4.17565
H         25.30723      -20.26492        4.15560
H         26.00923      -17.59916        3.05854
H         28.05414      -16.32981        3.94116
H         29.54575      -16.18952        5.97295
H         30.62426      -16.43783        7.99075
H         31.42613      -17.08241       10.30021
H         30.86524      -18.80463       12.23385
H         29.48189      -20.00388       11.95765
