90

C         -4.13312        3.71067       -8.26120
C         -2.74416        3.69307       -8.21664
C         -2.28579        4.12767       -6.95515
C         -3.33303        4.45283       -6.11985
S         -4.84609        4.25453       -6.77959
C         -2.81193        4.87441       -4.88004
C         -1.43773        4.81768       -4.92621
C         -1.02244        4.33592       -6.24472
C          0.22877        4.11886       -6.69812
C          1.37149        4.35187       -5.88885
N          2.31657        4.54895       -5.24403
C          0.47268        3.64496       -8.01366
N          0.66757        3.25728       -9.09426
C         -0.86098        5.22852       -3.70330
C         -1.84224        5.57248       -2.76861
S         -3.44292        5.38685       -3.43699
C         -1.64907        6.00748       -1.39862
C         -0.63366        5.67888       -0.52180
C         -0.78814        6.28639        0.78594
N          0.09060        6.08569        1.81452
C          1.11427        5.24086        1.45766
C          2.10947        4.94535        2.52161
O          2.04392        5.42277        3.64728
C          3.22177        4.02761        2.19831
C          3.35150        3.47261        0.99337
C          2.38925        3.74333       -0.08933
O          2.54709        3.20422       -1.17734
C          1.25646        4.65639        0.19590
N          0.39471        4.84652       -0.84843
C         -1.90816        7.08624        0.85679
S         -2.75123        7.08892       -0.63624
C         -2.42040        7.83621        1.96856
O         -2.22828        7.44808        3.27362
C         -2.89828        8.37300        4.00508
C         -3.46420        9.29178        3.13615
N         -3.15855        8.93446        1.84636
C         -4.21081       10.35231        3.66828
C         -4.37525       10.43830        5.05743
C         -3.79022        9.47898        5.86384
C         -3.03313        8.42854        5.37991
O         -4.09906        9.76463        7.15227
C         -4.86416       10.91906        7.09273
N         -5.04781       11.33688        5.84255
C         -5.35963       11.52726        8.27802
C         -6.10429       12.64323        8.22894
C         -6.61585       13.27046        9.40616
C         -6.13538       13.33306       10.69911
C         -6.96395       14.11164       11.59446
N         -6.65865       14.31160       12.91140
C         -5.48445       13.69351       13.26254
C         -5.06135       13.87251       14.67226
O         -5.70884       14.52483       15.48086
C         -3.80465       13.22898       15.10721
C         -3.06471       12.49093       14.27944
C         -3.45568       12.28165       12.87481
O         -2.75675       11.57864       12.15559
C         -4.69432       12.93612       12.39497
N         -4.97777       12.72533       11.07866
C         -8.09498       14.60672       10.97503
S         -8.09193       14.15506        9.30668
C         -9.16965       15.40211       11.54287
C         -9.10174       16.28488       12.62588
C        -10.36646       16.84731       12.91414
C        -11.33261       16.38350       12.05085
S        -10.79443       15.30771       10.91182
C        -12.57396       16.95501       12.39705
C        -12.39501       17.78203       13.48532
C        -10.98268       17.76701       13.87370
C        -10.39397       18.43904       14.88157
C        -11.13522       19.29613       15.74103
N        -11.74353       19.99452       16.44036
C         -8.99897       18.33854       15.13621
N         -7.85935       18.27890       15.34092
C        -13.60964       18.37358       13.89248
C        -14.65299       17.95235       13.07665
S        -14.13690       16.85753       11.83790
H         -4.77409        3.43092       -9.08661
H         -2.14276        3.37684       -9.06001
H          0.19987        5.27385       -3.48355
H          3.92904        3.82730        2.99680
H          4.16618        2.79658        0.75404
H         -4.66454       11.09487        3.02050
H         -2.57840        7.69290        6.03045
H         -5.10028       11.03460        9.20870
H         -6.34359       13.08950        7.26408
H         -3.51791       13.38685       16.14141
H         -2.14511       12.01151       14.59816
H         -8.18123       16.48142       13.16426
H        -13.76174       19.05823       14.71774
H        -15.69760       18.22669       13.14098
