91

C          0.20142       -2.03620       -3.75926
C          0.94393       -1.72234       -2.62711
C          0.58366       -0.44873       -2.13871
C         -0.39804        0.13206       -2.91302
S         -0.91033       -0.78435       -4.20203
C         -0.71445        1.39543       -2.37438
C          0.06223        1.61722       -1.26030
C          0.93250        0.45924       -1.04424
C          1.83945        0.26867       -0.06663
C          2.06392        1.24150        0.94310
N          2.24442        2.03934        1.77036
C          2.61796       -0.91836        0.00808
N          3.25345       -1.88749        0.06884
C         -0.21482        2.87510       -0.67950
C         -1.20015        3.56210       -1.39780
S         -1.76410        2.62007       -2.74931
C         -1.75434        4.87292       -1.11703
C         -2.27846        5.80968       -1.98365
C         -2.72892        7.01199       -1.31730
N         -3.24048        8.07801       -1.99276
C         -3.32309        7.86693       -3.33531
C         -3.91894        8.97963       -4.11035
O         -4.33577       10.00433       -3.58437
C         -4.01887        8.82338       -5.57267
C         -3.60459        7.71533       -6.18736
C         -3.02136        6.58155       -5.44436
O         -2.66231        5.58652       -6.06040
C         -2.89678        6.70711       -3.97426
N         -2.34517        5.63608       -3.33487
C         -2.58132        6.97102        0.05482
S         -1.83403        5.46347        0.49230
C         -2.91805        7.96364        1.07280
S         -1.94178        8.03709        2.49305
C         -2.81736        9.32360        3.22022
C         -3.84313        9.71356        2.38399
C         -3.90327        8.93758        1.15276
C         -4.88720        9.17090        0.17749
C         -5.77410       10.22461        0.48263
S         -7.06378       10.61241       -0.71045
C         -5.69767       10.96470        1.70194
O         -6.61274       11.96316        1.95301
C         -4.73740       10.74802        2.70625
C         -2.40031        9.85535        4.47769
C         -1.77990        9.10260        5.40118
C         -1.34877        9.63492        6.64765
C         -1.85248       10.65397        7.42493
C         -1.12062       10.86191        8.65255
N         -1.46919       11.80787        9.57414
C         -2.57748       12.51939        9.17876
C         -3.03938       13.56297       10.12405
O         -2.48734       13.77407       11.19630
C         -4.21911       14.36911        9.74918
C         -4.87157       14.17713        8.60173
C         -4.45006       13.14655        7.63809
O         -5.07175       13.01196        6.59439
C         -3.27373       12.31567        7.98541
N         -2.94874       11.37338        7.06111
C         -0.05519        9.99240        8.78902
S          0.02738        8.94644        7.41667
C          0.91441        9.89667        9.86422
C          1.37792       10.92540       10.68982
C          2.32496       10.44914       11.62523
C          2.53581        9.09634       11.48364
S          1.65194        8.37173       10.28458
C          3.48400        8.67475       12.43736
C          3.87596        9.76308       13.18695
C          3.16152       10.95111       12.71787
C          3.25603       12.21124       13.18260
C          4.12168       12.54279       14.25747
N          4.83504       12.81850       15.13014
C          2.50954       13.28050       12.61648
N          1.92047       14.15560       12.14098
C          4.83102        9.40347       14.16189
C          5.10938        8.04350       14.09140
S          4.20951        7.23703       12.85105
H          0.24928       -2.93749       -4.35577
H          1.68398       -2.39781       -2.21611
H          0.26446        3.28735        0.20059
H         -4.44863        9.65663       -6.11794
H         -3.67700        7.59519       -7.26292
H         -4.99243        8.62018       -0.73994
H         -6.47896       10.02619       -1.76922
H         -7.20936       11.98825        1.18069
H         -4.72931       11.33555        3.61701
H         -2.61077       10.90738        4.65263
H         -1.57825        8.05064        5.21543
H         -4.52746       15.12758       10.46498
H         -5.73793       14.76792        8.32473
H          1.03728       11.95025       10.59468
H          5.30924       10.05401       14.88381
H          5.79603        7.47337       14.70299
