104

C         -4.78840      -16.29721       10.79150
C         -4.81122      -17.66379       10.52391
F         -4.63898      -18.52893       11.53213
C         -5.02644      -18.13049        9.23509
F         -5.09337      -19.44671        8.99371
C         -5.19084      -17.23885        8.18319
C         -5.16935      -15.86122        8.43162
C         -4.99664      -15.37237        9.75764
C         -5.06657      -13.98226       10.02107
C         -5.30948      -13.08192        8.98739
C         -5.40728      -13.60788        7.69952
C         -5.34217      -14.95935        7.38842
C         -5.65017      -12.56340        6.71794
O         -5.57583      -12.77515        5.52792
C         -5.93240      -11.30108        7.49027
C         -5.56691      -11.60277        8.91813
C         -5.45407      -10.73595        9.95786
C         -5.72960       -9.34344        9.84952
N         -5.97438       -8.21121        9.78481
C         -5.04527      -11.13317       11.26438
N         -4.71171      -11.45111       12.33212
C         -6.55605      -10.22622        6.96513
C         -7.00949      -10.09576        5.61198
C         -6.42268      -10.42314        4.40292
C         -7.29483      -10.30457        3.27151
C         -8.49760       -9.71394        3.63484
S         -8.53819       -9.35550        5.31436
C         -9.49460       -9.48967        2.68455
C         -9.32987       -9.89434        1.34952
C         -8.12952      -10.48912        0.98364
C         -7.11940      -10.68661        1.92919
S         -8.12146      -10.90719       -0.68470
C         -9.71567      -10.30417       -0.95174
C        -10.23043       -9.82541        0.23950
C        -10.27867      -10.38986       -2.26666
C        -11.16821       -9.53312       -2.79891
C        -11.65657       -9.62254       -4.16134
C        -12.32023       -8.53026       -4.57341
C        -12.40136       -7.48969       -3.56613
S        -11.83101       -8.11760       -2.02635
C        -12.70969       -6.19394       -3.75605
C        -12.97843       -5.52987       -5.01717
C        -12.72908       -4.20945       -4.97487
C        -12.25376       -3.76762       -3.67627
S        -12.61363       -4.98522       -2.48353
C        -11.57110       -2.62942       -3.47552
C        -10.87704       -2.27506       -2.27584
C        -10.26022       -3.06215       -1.31758
C         -9.47866       -2.33258       -0.37081
C         -9.54297       -0.96825       -0.61814
S        -10.60704       -0.61424       -1.91826
C         -8.76987       -0.07399        0.12305
C         -7.85255       -0.53693        1.07893
C         -7.82831       -1.89876        1.35886
C         -8.65104       -2.78536        0.66676
S         -6.67645       -2.27531        2.56837
C         -6.11532       -0.65519        2.65892
C         -6.83939        0.16024        1.81350
C         -4.96711       -0.39411        3.44178
C         -4.71110        0.67796        4.20012
C         -3.24509        0.78170        4.54643
O         -2.36633       -0.04210        4.38960
C         -3.04387        2.12431        5.08055
C         -1.81814        2.64499        5.47151
C         -1.80074        3.90782        6.06250
C         -3.02916        4.59619        6.27301
C         -3.01242        5.83419        6.93047
C         -1.80551        6.39368        7.33658
C         -0.60692        5.73684        7.09667
C         -0.59506        4.49625        6.46905
F          0.55282        6.29141        7.47333
F         -1.81221        7.57903        7.96064
C         -4.24619        4.03461        5.82998
C         -4.26302        2.80182        5.18690
C         -5.36189        1.92390        4.64740
C         -6.68153        2.23879        4.69687
C         -7.74023        1.30434        4.51712
N         -8.66649        0.61190        4.42220
C         -7.15111        3.56016        4.96171
N         -7.52781        4.64354        5.14266
H         -4.62077      -15.97199       11.81498
H         -5.35824      -17.63269        7.18428
H         -4.96019      -13.66340       11.05219
H         -5.46112      -15.28123        6.35759
H         -6.85730       -9.40275        7.60297
H         -5.42585      -10.83681        4.31903
H        -10.42579       -9.01152        2.98083
H         -6.18970      -11.16887        1.63448
H        -11.23171       -9.42823        0.34051
H         -9.90382      -11.19250       -2.89937
H        -11.46890      -10.48175       -4.79075
H        -12.72289       -8.41644       -5.56944
H        -13.27683       -6.05462       -5.91257
H        -12.79553       -3.55080       -5.82945
H        -11.43923       -1.95323       -4.31805
H        -10.26868       -4.14472       -1.32709
H         -8.83262        0.99115       -0.08444
H         -8.60466       -3.85036        0.88764
H         -6.63861        1.21500        1.67961
H         -4.17965       -1.14265        3.32351
H         -0.91091        2.06260        5.32865
H         -3.93109        6.37838        7.13505
H          0.35941        4.00288        6.30577
H         -5.15223        4.59277        6.03541
