91

C         -6.93177        1.41833        6.58854
C         -8.24742        1.60163        7.01383
F         -8.58219        2.73798        7.64039
C         -9.20693        0.62602        6.78681
F        -10.47721        0.82359        7.16531
C         -8.86042       -0.56793        6.16787
C         -7.53738       -0.78701        5.75810
C         -6.55313        0.23445        5.93228
C         -5.23721        0.05049        5.43251
C         -4.90362       -1.13752        4.79280
C         -5.88174       -2.14060        4.71586
C         -7.18073       -1.99948        5.16960
C         -5.35496       -3.31177        4.01021
O         -5.74884       -4.44930        4.14400
C         -4.16170       -2.79639        3.27047
C         -3.70008       -1.62965        4.05619
C         -2.41486       -1.22471        4.20317
C         -2.05550       -0.15950        5.07570
N         -1.77598        0.71381        5.78769
C         -1.33881       -1.89154        3.55939
N         -0.45435       -2.43691        3.02567
C         -3.85083       -3.16934        2.01452
C         -4.62690       -4.14351        1.31194
C         -5.72841       -3.98686        0.47802
O         -6.18660       -2.74850        0.13114
C         -7.14248       -2.74861       -0.93463
C         -6.31734       -5.24318        0.14786
C         -5.60310       -6.33241        0.61408
S         -4.19072       -5.81075        1.42570
C         -5.91373       -7.72876        0.37283
C         -5.71604       -8.86161        1.15041
O         -5.19957       -8.78940        2.40830
C         -4.58095       -9.99921        2.84316
C         -6.12444      -10.05845        0.47481
C         -6.57117       -9.83394       -0.80924
S         -6.62478       -8.15965       -1.14339
C         -6.98823      -10.77139       -1.79608
C         -6.15682      -11.27885       -2.71946
C         -6.56086      -12.16499       -3.78947
C         -5.63188      -12.30763       -4.74904
C         -4.42581      -11.53364       -4.50129
S         -4.46161      -10.89961       -2.85418
C         -3.44442      -11.24308       -5.37614
C         -3.34725      -11.66848       -6.76059
C         -2.31220      -11.12980       -7.42295
C         -1.51055      -10.23934       -6.61468
S         -2.10275      -10.16528       -4.98086
C         -0.41809       -9.55289       -6.97231
C          0.19958       -9.60902       -8.27682
C          1.46016      -10.00579       -8.50832
C          2.21690      -10.13451       -9.77646
C          1.70598      -10.21275      -11.03202
C          2.50807      -10.42804      -12.18526
N          3.15603      -10.60549      -13.13518
C          0.30391      -10.16084      -11.30526
N         -0.83248      -10.13186      -11.52845
C          3.65209      -10.34156       -9.39267
C          3.72295      -10.52232       -8.00994
C          2.40766      -10.35171       -7.39110
O          2.19569      -10.44540       -6.20020
C          4.89423      -10.78519       -7.30647
C          6.09665      -10.85335       -8.03920
C          6.04962      -10.63688       -9.42440
C          4.83813      -10.37458      -10.11861
S          7.62986      -10.73575      -10.11875
C          8.33836      -11.06600       -8.62274
C          7.43771      -11.11183       -7.59301
Br        10.17790      -11.33582       -8.39551
H         -6.21471        2.21245        6.77964
H         -9.63455       -1.31376        6.00562
H         -4.52282        0.86364        5.53018
H         -7.89225       -2.80893        5.02845
H         -3.07012       -2.67040        1.44886
H         -8.00368       -3.39151       -0.72247
H         -6.67437       -3.03497       -1.88436
H         -7.53669       -1.73346       -1.04769
H         -7.23343       -5.36404       -0.41368
H         -3.97560       -9.78387        3.72844
H         -3.91015      -10.40262        2.07532
H         -5.33270      -10.74575        3.12527
H         -6.05691      -11.05508        0.88973
H         -8.04156      -11.02966       -1.81055
H         -7.53708      -12.62915       -3.82103
H         -5.78640      -12.90031       -5.63990
H         -4.04350      -12.35372       -7.22194
H         -2.09224      -11.33691       -8.46127
H          0.09429       -8.94266       -6.22730
H         -0.47156       -9.29624       -9.06950
H          4.87446      -10.92451       -6.22854
H          4.88667      -10.20189      -11.18697
H          7.70620      -11.31285       -6.56234
