74

C         -6.25643        0.57428       -6.24133
C         -4.91800        0.58681       -6.61652
C         -4.18542        1.47326       -5.79798
C         -4.99023        2.07650       -4.85708
S         -6.59119        1.63187       -4.91143
C         -4.20165        2.94192       -4.07136
C         -2.90023        2.89328       -4.51079
C         -2.81416        1.95703       -5.63527
C         -1.72957        1.61496       -6.35713
C         -0.45430        2.16496       -6.07863
N          0.59155        2.61594       -5.85115
C         -1.80165        0.68008       -7.42206
N         -1.86134       -0.08519       -8.29621
C         -2.06519        3.74808       -3.75330
C         -2.78661        4.42104       -2.75977
S         -4.46954        3.95273       -2.78812
C         -2.31729        5.39409       -1.74531
C         -0.99440        5.33804       -1.25502
C         -0.51368        6.23487       -0.27322
C         -1.39078        7.20476        0.22810
C         -2.67585        7.23696       -0.27367
C         -3.18370        6.38574       -1.24795
O         -3.34548        8.23235        0.35928
C         -2.41869        8.79788        1.19847
N         -1.23940        8.19021        1.18127
C         -2.88575        9.92565        2.01713
C         -2.31274       10.12539        3.27647
C         -2.73097       11.18163        4.08737
C         -3.73723       12.08162        3.67619
C         -4.32293       11.87574        2.39680
N         -5.30865       12.69173        1.93985
C         -5.81955       12.48159        0.71003
C         -5.38251       11.46017       -0.08437
N         -4.41616       10.62697        0.32837
C         -3.88256       10.80147        1.56363
C         -4.13652       13.21654        4.59465
C         -4.57500       14.46764        4.09094
C         -4.96850       15.54857        4.90766
C         -4.90663       15.38139        6.28915
C         -4.47255       14.16923        6.78490
C         -4.07826       13.07851        6.00372
O         -4.52353       14.24301        8.14593
C         -5.02809       15.50314        8.40799
N         -5.21581       16.23258        7.31986
C         -5.27434       15.97361        9.74337
N         -4.56158       15.56856       10.78393
C         -5.03669       16.24865       11.86183
C         -6.05578       17.08186       11.48692
N         -6.22459       16.91747       10.11732
C         -7.26640       17.46205        9.34950
O         -7.70532       16.85510        8.38034
N         -7.91153       18.63754        9.75487
C         -9.21229       18.97327        9.44763
N         -9.58736       20.09931       10.01271
C         -8.48025       20.56198       10.66363
C         -7.42749       19.69345       10.50457
H         -7.06251       -0.00116       -6.67653
H         -4.54128       -0.01890       -7.43154
H         -1.00263        3.89740       -3.90181
H         -0.30851        4.57384       -1.61852
H          0.50468        6.17034        0.09419
H         -4.20683        6.50437       -1.58265
H         -1.53489        9.45101        3.63535
H         -2.24067       11.29627        5.05265
H         -6.59121       13.16829        0.38528
H         -5.78947       11.27165       -1.06971
H         -4.63070       14.63933        3.01736
H         -5.32141       16.47847        4.47621
H         -3.76326       12.16411        6.49182
H         -4.64294       16.08871       12.85896
H         -6.70480       17.70640       12.08528
H         -9.84268       18.32968        8.84615
H         -8.49251       21.50260       11.20105
H         -6.40045       19.75489       10.83604
