93

C         -3.96192       -5.20036       13.19480
C         -4.04775       -6.19278       14.16649
F         -4.58822       -5.89824       15.35669
C         -3.59908       -7.47880       13.90274
F         -3.71642       -8.43727       14.83171
C         -3.03694       -7.79254       12.66935
C         -2.93973       -6.81229       11.67092
C         -3.42927       -5.49388       11.93059
C         -3.42431       -4.51851       10.91229
C         -2.95983       -4.85713        9.64954
C         -2.45383       -6.14886        9.43282
C         -2.41546       -7.12698       10.41142
C         -2.17734       -6.34462        7.99788
O         -1.45996       -7.18160        7.49319
C         -2.93272       -5.23917        7.32523
C         -3.01394       -4.16056        8.33391
C         -2.98001       -2.82591        8.11716
C         -2.88650       -2.27949        6.80767
N         -2.81039       -1.82849        5.73770
C         -2.95458       -1.88172        9.18916
N         -2.94300       -1.13268       10.06719
C         -3.66201       -5.36447        6.19959
C         -3.87547       -6.55321        5.32297
C         -4.11173       -6.42691        3.94513
C         -4.34192       -7.56929        3.08057
N         -4.65798       -7.32547        1.78680
C         -4.71370       -6.05478        1.33442
C         -4.46719       -4.99030        2.16068
N         -4.16436       -5.16482        3.46348
F         -4.55721       -3.73693        1.69596
F         -5.03714       -5.85651        0.04897
C         -4.28079       -8.92587        3.54700
C         -4.15242       -9.07410        4.95202
C         -4.01631       -7.86544        5.85419
N         -4.12352       -8.19482        7.15409
S         -4.08031       -9.84164        7.24926
N         -4.13601      -10.22720        5.64395
C         -4.44602      -10.13470        2.67752
C         -4.94876      -11.45281        2.87063
C         -5.18013      -12.13191        1.61871
C         -5.05471      -11.16660        0.64211
S         -3.94756       -9.99600        1.00701
C         -5.88400      -11.40967       -0.45472
C         -6.57834      -12.57603       -0.24321
C         -5.89546      -13.36741        1.06155
C         -5.09336      -14.55097        0.79204
C         -4.98101      -14.31251       -0.70493
N         -4.88780      -14.11469       -1.94679
C         -5.50479      -15.79900        1.31373
N         -5.85875      -16.81347        1.75114
C         -7.26386      -12.92314       -1.51240
C         -6.78980      -12.13071       -2.61246
S         -6.07858      -10.67302       -1.93536
C         -6.67275      -12.38818       -4.13973
C         -5.61427      -11.80457       -4.87910
C         -5.39524      -12.08510       -6.24486
C         -6.21039      -12.97599       -6.96141
C         -7.29586      -13.54127       -6.27669
N         -8.11183      -14.38736       -6.94507
C         -9.15989      -14.90774       -6.28417
C         -9.40551      -14.60498       -4.96840
N         -8.60711      -13.78633       -4.25055
C         -7.53414      -13.24093       -4.86749
C         -5.70985      -13.36934       -8.33283
C         -6.25923      -13.73466       -9.51177
C         -7.63675      -13.82800       -9.92103
C         -7.82234      -14.29669      -11.16685
C         -6.60152      -14.60803      -11.89582
S         -5.21330      -14.20156      -10.87697
C         -6.52797      -15.12155      -13.14649
C         -7.65953      -15.48505      -13.99190
C         -7.32571      -15.97335      -15.19559
C         -5.90419      -16.03569      -15.41075
S         -5.02077      -15.46439      -14.01652
C         -5.31995      -16.47247      -16.53119
H         -4.33697       -4.20865       13.43518
H         -2.70502       -8.81270       12.49544
H         -3.85432       -3.54135       11.11518
H         -2.06303       -8.12503       10.16575
H         -4.24519       -4.50512        5.86568
H         -5.27401      -11.82275        3.83514
H         -7.73888      -13.88056       -1.69375
H         -4.90540      -11.12569       -4.40444
H         -4.54394      -11.61472       -6.74033
H         -9.79828      -15.57623       -6.85043
H        -10.25581      -15.01794       -4.43951
H         -4.61589      -13.37960       -8.32973
H         -8.45237      -13.54579       -9.27301
H         -8.80458      -14.42617      -11.59837
H         -8.68838      -15.38110      -13.68082
H         -8.04018      -16.29470      -15.94212
H         -5.90267      -16.82042      -17.37908
H         -4.24017      -16.49598      -16.64056
