83

C          6.28415       10.86036        7.54625
C          5.01228       10.91871        8.10231
C          4.03161       10.90969        7.08833
C          4.59931       10.84230        5.83250
S          6.25979       10.80343        5.81489
C          3.56979       10.73393        4.87483
C          2.35772       10.69682        5.52261
C          2.57378       10.89451        6.95607
C          1.65648       11.08779        7.92497
C          0.26347       11.11145        7.63115
N         -0.86754       11.13024        7.38104
C          2.03048       11.32616        9.27798
N          2.33664       11.52128       10.37672
C          1.30489       10.40930        4.62320
C          1.77800       10.24697        3.31181
S          3.47891       10.61925        3.22348
C          1.01661        9.86365        2.12373
C          1.40773        9.16859        0.96398
C          2.73791        8.55807        0.82128
O          3.44132        8.65875       -0.17218
O          3.16052        7.83165        1.89507
C          0.35378        9.23063       -0.07016
C         -0.81947        9.69491        0.48621
S         -0.64648       10.28535        2.06324
C          0.39239        8.76551       -1.54845
C         -0.36807        9.23065       -2.64930
C         -1.35202       10.31434       -2.58339
O         -2.40565       10.38234       -3.20072
O         -1.08855       11.31498       -1.71449
C         -0.00867        8.50643       -3.89841
C          0.94022        7.53744       -3.63193
S          1.40040        7.45815       -2.00972
C         -0.47755        8.71339       -5.28298
C         -1.76500        8.96181       -5.60684
C         -2.23595        9.19058       -6.95163
C         -1.37599        8.99879       -8.12365
C         -0.08983        8.66516       -8.05539
S          0.78061        8.54487       -6.55315
C         -2.17631        9.23676       -9.25929
C         -3.44659        9.57718       -8.86115
C         -4.31520        9.82128       -9.93962
C         -3.63330        9.68137      -11.14006
S         -1.97166        9.23082      -10.91767
C         -3.47777        9.54086       -7.41161
C         -4.66705        9.72138       -6.60069
C         -5.68952       10.54058       -6.90036
C         -6.90831       10.61461       -6.11138
C         -7.97050       11.41310       -6.32285
C         -9.22571       11.56900       -5.53504
C         -9.80007       10.65517       -4.70860
C        -11.04746       10.86972       -4.06353
N        -12.07112       11.03999       -3.52540
C         -9.22893        9.37582       -4.44905
N         -8.76572        8.33760       -4.22368
C         -9.82567       12.88108       -5.94696
C         -9.10305       13.37641       -7.03291
C         -8.00466       12.47297       -7.38982
O         -7.30505       12.60171       -8.37293
C         -9.36911       14.58541       -7.66883
C        -10.44868       15.35751       -7.19049
C        -11.18803       14.87241       -6.10199
C        -10.88524       13.64175       -5.45963
S        -12.46441       15.96236       -5.68603
C        -12.03225       17.03934       -6.91171
C        -10.94912       16.62712       -7.64019
Br       -12.94567       18.64144       -7.24046
H          7.23424       10.83633        8.06338
H          4.84839       10.94423        9.17245
H          0.26523       10.27006        4.89628
H          2.57895        7.89767        2.67325
H         -1.79970        9.74996        0.03847
H         -1.90724       11.85281       -1.76359
H          1.41136        6.85396       -4.32685
H         -2.53020        8.98032       -4.84604
H          0.47991        8.49199       -8.96418
H         -5.36245       10.08868       -9.87629
H         -4.02315        9.81702      -12.13989
H         -4.71088        9.11472       -5.69894
H         -5.61111       11.17509       -7.77817
H         -6.89948        9.93140       -5.26743
H         -8.75478       14.92158       -8.50004
H        -11.48980       13.34948       -4.60896
H        -10.52419       17.19015       -8.46283
