102

C          1.84274       -1.88785        5.61576
C          2.50350       -1.78800        4.39928
C          1.89116       -0.79566        3.60940
C          0.79257       -0.22377        4.21240
S          0.47007       -0.82580        5.73103
C          0.35907        0.87467        3.42788
C          1.25167        1.05297        2.39764
C          2.14426       -0.10810        2.34579
C          2.87794       -0.56039        1.31576
C          2.94554        0.17613        0.10705
N          3.00665        0.83137       -0.85834
C          3.55140       -1.82135        1.35431
N          4.07278       -2.85539        1.37667
C          1.13984        2.35747        1.84523
C         -0.00365        3.04242        2.30886
S         -0.89230        1.96439        3.42799
C         -0.49005        4.43340        2.09608
C         -0.95937        5.16145        3.39175
C         -2.15782        5.88743        3.47434
C         -2.57407        6.55743        4.63110
C         -1.96510        6.28851        5.83575
C         -0.90504        5.40589        5.85630
C         -0.36452        4.91661        4.65528
F          0.70605        4.11339        4.76357
F         -0.41735        4.98566        7.03309
F         -2.44283        6.81486        6.97204
F         -3.61875        7.39645        4.58117
F         -3.06387        5.79585        2.49606
C         -0.45307        5.02052        0.81770
C         -0.24963        4.21110       -0.51723
C         -0.46649        2.82699       -0.67005
C         -0.02934        2.10410       -1.79176
C          0.50823        2.75486       -2.88080
C          0.52425        4.12817       -2.87421
C          0.13026        4.83299       -1.73234
F          0.05918        6.15659       -1.89869
F          0.90240        4.80372       -3.96863
F          0.93211        2.07389       -3.95310
F         -0.14530        0.76813       -1.80450
F         -1.15736        2.12914        0.24088
C         -0.54413        6.54675        0.63173
C          0.50977        7.32561        0.23346
C          0.32667        8.74594       -0.08732
C         -0.73235        9.48722        0.62161
C         -1.86014        8.89737        1.02053
S         -2.17608        7.24405        0.53921
C         -0.51631       10.85741        0.40545
C          0.45626       11.00004       -0.55229
C          0.65055       12.34135       -0.93328
C         -0.15728       13.17547       -0.16795
S         -1.16575       12.29773        0.94034
C          0.96124        9.66920       -0.88318
C          2.00835        9.50827       -1.87009
C          2.04966        8.60968       -2.86801
C          3.15136        8.58109       -3.81951
C          3.08176        8.48780       -5.15747
C          4.23703        8.36248       -6.01894
C          3.93522        8.15693       -7.30918
C          2.50899        8.13617       -7.57750
S          1.61628        8.52473       -6.09395
C          1.90646        7.78056       -8.72822
C          2.53010        7.19739       -9.90527
C          1.65166        6.63688      -10.75371
C          0.27173        6.80341      -10.34758
S          0.16453        7.83699       -8.94705
C         -0.79551        6.23186      -10.92994
C         -2.18268        6.44601      -10.52981
C         -2.84123        5.50419       -9.82338
C         -4.17582        5.72882       -9.32348
C         -4.81780        7.05039       -9.39804
C         -4.31964        8.09396      -10.06159
S         -2.86338        8.00321      -11.00446
C         -6.02981        6.95307       -8.68857
C         -6.18510        5.67047       -8.22218
C         -7.38867        5.47192       -7.52676
C         -8.11030        6.65721       -7.49127
S         -7.30329        7.96237       -8.30586
C         -5.02388        4.91212       -8.62908
C         -4.82765        3.53059       -8.26492
C         -4.56024        2.55679       -9.14162
H          2.10882       -2.50709        6.46145
H          3.39652       -2.35701        4.16193
H          1.85376        2.80273        1.16335
H          1.50887        6.92157        0.10589
H         -2.68580        9.46927        1.42953
H          1.32236       12.70322       -1.70063
H         -0.22559       14.25476       -0.20471
H          2.75855       10.29817       -1.86502
H          1.26691        7.86601       -2.99807
H          4.13643        8.60855       -3.35772
H          5.24908        8.40505       -5.64082
H          4.68221        8.02769       -8.08078
H          3.60093        7.14098      -10.04494
H          1.93392        6.09666      -11.64788
H         -0.65956        5.55270      -11.76710
H         -2.35340        4.57257       -9.55294
H         -4.84587        9.04164      -10.06967
H         -7.72775        4.54493       -7.08538
H         -9.07385        6.83440       -7.03359
H         -4.96312        3.28650       -7.21282
H         -4.46623        2.75016      -10.20498
H         -4.45759        1.52615       -8.80917
