116

C          8.54250        0.09829       -8.77211
C          9.80279        0.67731       -8.84956
C          9.72065        2.06572       -8.62002
C          8.42798        2.46722       -8.35177
S          7.29558        1.24991       -8.41952
C          8.42910        3.85027       -8.06517
C          9.72061        4.32196       -8.15711
C         10.60933        3.22740       -8.54697
C         11.92952        3.28298       -8.81495
C         12.65700        4.49686       -8.72847
N         13.25622        5.48897       -8.66236
C         12.66009        2.13513       -9.23223
N         13.24120        1.19857       -9.58351
C          9.79854        5.69634       -7.84435
C          8.54290        6.21588       -7.53284
S          7.29989        4.99533       -7.64646
C          8.17763        7.54855       -7.19006
C          8.18386        8.02353       -5.93067
C          7.66763        9.32014       -5.55749
C          7.38849        9.41740       -4.25034
C          7.65985        8.18964       -3.52273
S          8.66888        7.13128       -4.51350
C          7.06267        7.79305       -2.38479
C          6.01061        8.49363       -1.67367
C          5.22471        7.66585       -0.96746
C          5.63941        6.27546       -1.04815
S          7.24629        6.18516       -1.70862
C          4.84058        5.25299       -0.70847
C          5.15116        3.85899       -0.72595
C          6.26831        3.11359       -1.04810
C          6.27567        1.79690       -0.44389
C          5.04262        1.52909        0.16372
S          3.91465        2.74216       -0.32708
C          4.87046        0.40506        1.00521
C          3.54255       -0.18296        1.38652
C          3.42837       -1.56723        1.62222
C          2.19296       -2.19764        1.82905
C          1.00274       -1.49128        1.74786
C          1.08021       -0.11745        1.56234
C          2.32641        0.52018        1.42111
C         -0.31772       -2.18866        1.86015
C          6.06656       -0.16612        1.52636
C          7.25027       -0.03024        0.79174
C          7.32489        0.83666       -0.32701
C          8.47976        0.88157       -1.28463
C          8.27918        1.19267       -2.64812
C          9.32873        1.21136       -3.58255
C         10.61877        0.84545       -3.20365
C         10.84804        0.53129       -1.86686
C          9.80578        0.58292       -0.92922
C         11.75216        0.85507       -4.18371
S          8.43585       -1.08783        1.47976
C          7.65499       -1.11308        3.00428
C          6.32471       -0.81212        2.79695
C          8.43039       -1.43713        4.15740
C          7.99941       -2.02755        5.28073
C          8.87022       -2.32692        6.39950
C          8.30841       -3.11924        7.32369
C          6.94794       -3.50766        7.00030
S          6.39363       -2.61346        5.59013
C          6.22614       -4.48626        7.57378
C          6.65378       -5.39715        8.61763
C          5.92767       -6.52779        8.65897
C          4.89137       -6.57319        7.64235
S          4.63612       -4.97176        7.00200
C          4.28316       -7.69763        7.22764
C          3.41613       -7.79301        6.09025
C          3.45893       -7.12344        4.86122
C          2.44188       -7.55050        3.98829
C          1.68881       -8.55583        4.54691
S          2.12870       -8.97637        6.09345
C          0.73845       -8.98542        3.59495
C          0.88723       -8.23859        2.44303
C          1.96162       -7.27022        2.63625
C          2.40278       -6.33060        1.78094
C          1.79496       -6.12706        0.51043
N          1.28439       -5.96175       -0.51999
C          3.49227       -5.48589        2.12139
N          4.37646       -4.79525        2.41609
C          0.00288       -8.65479        1.42743
C         -0.78670       -9.70500        1.87762
S         -0.43536      -10.15999        3.51265
H          8.28506       -0.94562       -8.89534
H         10.69607        0.09679       -9.04942
H         10.69252        6.30813       -7.82903
H          7.79230        8.16910       -7.99391
H          7.46586       10.10336       -6.27599
H          6.93773       10.28835       -3.79408
H          5.83000        9.55459       -1.76411
H          4.34878        7.98347       -0.41797
H          3.84785        5.51108       -0.34012
H          7.16031        3.52424       -1.49812
H          4.31238       -2.20356        1.62249
H          2.16549       -3.25774        2.02926
H          0.17151        0.47695        1.50868
H          2.29178        1.59645        1.31919
H         -0.19692       -3.27822        1.87426
H         -0.94663       -1.94416        0.99778
H         -0.82859       -1.89105        2.77998
H          7.28346        1.43376       -3.01774
H          9.11798        1.50324       -4.60921
H         11.84268        0.24553       -1.53104
H         10.08350        0.38049        0.09800
H         12.24582        1.83175       -4.17464
H         11.39852        0.64545       -5.19839
H         12.49079        0.08577       -3.93218
H          5.56625       -0.86832        3.56738
H          9.48520       -1.16935        4.10501
H          9.88712       -1.96226        6.45884
H          8.82911       -3.46445        8.20511
H          7.50714       -5.20846        9.25342
H          6.13141       -7.35163        9.32799
H          4.51333       -8.63008        7.73845
H          4.21216       -6.38123        4.62851
H         -0.07709       -8.25576        0.42337
H         -1.55077      -10.23996        1.32998
