91

C         -3.51305        1.59123        7.75236
C         -3.54314        0.95410        6.51761
C         -3.15737        1.84448        5.49396
C         -2.85776        3.09341        5.99521
S         -3.01701        3.24683        7.64285
C         -2.49844        3.93867        4.92646
C         -2.57574        3.22860        3.74746
C         -2.98158        1.85328        4.04033
C         -3.14343        0.83089        3.17817
C         -2.91624        0.98495        1.78345
N         -2.72692        1.10852        0.64535
C         -3.54030       -0.46100        3.61934
N         -3.86456       -1.51424        3.98335
C         -2.26195        4.03850        2.63547
C         -1.94246        5.33220        3.04379
S         -2.03129        5.52243        4.76301
C         -1.58454        6.44236        2.20878
O         -0.78839        7.47985        2.64299
C         -0.69164        8.30073        1.56702
C         -1.43784        7.75003        0.53665
N         -1.98386        6.56357        0.95159
C         -1.51247        8.43237       -0.68131
C         -0.81717        9.63691       -0.82792
C         -0.07911       10.12545        0.23544
C          0.01122        9.48851        1.46000
O          0.49921       11.29019       -0.15322
C          0.08454       11.47472       -1.46301
N         -0.70568       10.49371       -1.88601
C          0.48366       12.61401       -2.21057
C          0.08363       12.76671       -3.48228
C          0.44590       13.91224       -4.24142
S          0.55500       13.80052       -5.94772
C          1.01624       15.45415       -6.14525
C          1.04607       16.07930       -4.90737
C          0.72761       15.19725       -3.82636
N          1.37659       17.45494       -4.68064
O          2.51856       17.81483       -4.98654
O          0.50921       18.14133       -4.12569
C          1.26658       15.95790       -7.48492
C          1.77159       15.24229       -8.57936
C          1.87864       16.05705       -9.72800
C          1.43331       17.33364       -9.47397
S          0.89937       17.59828       -7.92636
C          1.59264       18.11453      -10.63483
C          2.16359       17.34076      -11.61694
C          2.33511       15.97479      -11.11882
C          2.76990       14.89356      -11.79679
C          3.17611       14.97519      -13.15979
N          3.52912       15.03736      -14.26312
C          2.83032       13.61206      -11.18943
N          2.87440       12.56363      -10.68287
C          2.44947       18.10271      -12.76780
C          2.01907       19.42719      -12.63262
S          1.28920       19.68631      -11.06468
C          2.15698       20.56185      -13.49081
C          2.16619       20.51838      -14.83202
C          2.56831       21.57671      -15.78266
C          2.23644       22.88841      -15.73028
C          2.50225       23.78146      -16.80716
N          2.71402       24.49663      -17.69559
C          1.49910       23.43973      -14.64263
N          0.90542       23.88096      -13.74909
C          3.17820       20.86828      -16.94360
C          2.80127       19.52037      -16.86710
C          1.99127       19.28741      -15.66768
O          1.27294       18.33133      -15.47092
C          3.18490       18.55880      -17.78327
C          3.99007       18.96207      -18.84937
C          4.41022       20.32117      -18.95001
C          4.01046       21.26641      -17.97916
C          5.21759       20.69692      -20.03322
C          5.59296       19.76344      -21.00211
C          5.17630       18.43886      -20.89928
C          4.38523       18.03752      -19.82438
H         -3.75882        1.17436        8.71992
H         -3.83477       -0.08319        6.40914
H         -2.25339        3.74339        1.59201
H         -2.09784        8.03469       -1.50312
H          0.59433        9.88945        2.27910
H          1.11838       13.33250       -1.70558
H         -0.52812       12.00116       -3.95980
H          0.70247       15.50735       -2.78703
H          2.05197       14.19738       -8.51720
H          2.95881       17.73703      -13.65102
H          2.34943       21.50244      -12.97944
H          2.86681       17.52759      -17.65639
H          4.36659       22.28937      -18.06319
H          5.55343       21.72637      -20.14289
H          6.20976       20.07305      -21.84209
H          5.46509       17.71566      -21.65785
H          4.07256       16.99675      -19.75986
