125

C         -1.50589       -2.95853        2.53560
C         -2.23777       -2.89641        1.35439
C         -2.41092       -1.55672        0.95613
C         -1.81234       -0.67979        1.83689
S         -1.04973       -1.39702        3.12829
C         -2.01820        0.63717        1.38253
C         -2.75010        0.59631        0.21668
C         -3.04299       -0.79861       -0.12684
C         -3.72243       -1.27008       -1.18591
C         -4.28422       -0.39965       -2.16293
N         -4.74144        0.31204       -2.95517
C         -3.94568       -2.65732       -1.38406
N         -4.09736       -3.80561       -1.54423
C         -2.98781        1.88972       -0.28460
C         -2.40609        2.86071        0.53863
S         -1.59360        2.15365        1.89599
C         -2.43280        4.28831        0.34773
C         -1.51192        5.23410        0.71163
C         -1.77564        6.57993        0.21245
C         -1.00132        7.77382        0.28831
C          0.36777        7.74816        0.91922
C          1.05750        8.70995        1.65329
C          2.33502        8.28703        2.13002
C          2.58952        6.97419        1.81898
S          1.43594        6.39725        0.70309
C          3.69146        6.08119        2.28199
Cl         3.35271        9.32140        3.03717
C         -1.53649        8.98802       -0.21528
C         -2.79097        9.04474       -0.85497
C         -3.55136        7.83415       -1.01839
C         -3.02606        6.62800       -0.43653
S         -3.74588        5.04575       -0.35061
C         -4.90021        7.86251       -1.75727
C         -5.63843        8.88826       -2.35356
C         -6.92247        8.51777       -2.87161
C         -7.19279        7.19687       -2.65262
S         -5.80890        6.41806       -2.08949
C         -8.42550        6.39740       -2.88140
Cl        -7.96188        9.64911       -3.62176
C         -3.06201       10.42002       -1.21920
C         -2.12167       11.35843       -0.87071
S         -0.79853       10.56585       -0.18598
C         -2.18888       12.79930       -1.06003
S         -1.47977       13.85467        0.10257
C         -1.91454       15.26979       -0.75655
C         -2.64395       14.95630       -1.88781
C         -2.79417       13.53983       -2.06993
S         -3.64151       12.85278       -3.47016
C         -3.53952       14.17134       -4.58652
O         -2.96372       14.19971       -5.65266
C         -4.38450       15.26213       -3.96975
O         -5.56043       15.47511       -4.18260
S         -3.29297       16.18824       -2.98955
C         -1.53708       16.53026       -0.21614
C         -0.35791       17.07908       -0.54763
C          0.05985       18.33461       -0.01468
C         -0.57981       19.20300        0.87269
C          0.18798       20.35512        1.11155
C          1.37857       20.32593        0.42483
S          1.61408       18.97142       -0.49926
C          2.09099       21.50922        0.70387
C          1.35180       22.28680        1.56401
C          0.10135       21.59868        1.87159
C         -0.91623       22.00405        2.66945
C         -0.86023       23.24821        3.34084
N         -0.81475       24.26911        3.88755
C         -2.07470       21.21433        2.86877
N         -3.01466       20.56528        3.02888
C          2.01613       23.49006        1.87983
C          3.25463       23.56088        1.23869
S          3.54593       22.15831        0.24888
C          4.20625       24.64440        1.31113
C          3.93852       25.97303        1.53708
C          5.09000       26.85565        1.45662
C          5.21290       28.27105        1.57782
C          4.01455       29.11892        1.89601
C          3.90306       30.23722        2.71790
C          2.58773       30.78570        2.78669
C          1.67912       30.03797        2.07694
S          2.47867       28.84703        1.14702
C          0.19564       30.18170        1.98568
Cl         2.23733       32.19531        3.69320
C          6.48418       28.88397        1.42045
C          7.64554       28.13027        1.15837
C          7.52867       26.71064        1.07648
C          6.25420       26.10254        1.22235
S          5.87308       24.40975        1.19736
C          8.73798       25.84948        0.82616
C          8.87013       24.66071        0.11160
C         10.19054       24.12087        0.10255
C         11.08525       24.93920        0.74764
S         10.27007       26.20784        1.54851
C         12.57101       24.83029        0.83898
Cl        10.56261       22.64302       -0.67781
C          8.78531       29.01520        1.00481
C          8.51352       30.33849        1.22639
S          6.86685       30.58506        1.47544
H         -1.21124       -3.84112        3.08665
H         -2.59969       -3.78313        0.85081
H         -3.53287        2.13665       -1.18735
H         -0.63593        4.94473        1.27072
H          0.67646        9.69563        1.87855
H          4.56340        6.65103        2.61678
H          4.02316        5.40116        1.49137
H          3.34610        5.47503        3.12848
H         -5.34787        9.91454       -2.43607
H         -9.29006        7.03493       -3.08298
H         -8.66332        5.80228       -1.99084
H         -8.29329        5.71234       -3.72444
H         -3.95471       10.75744       -1.69615
H         -2.23407       17.00307        0.46901
H          0.31135       16.56763       -1.23480
H         -1.55358       18.99504        1.29797
H          1.65399       24.27179        2.53607
H          2.92464       26.30351        1.70693
H          4.73200       30.67128        3.26162
H         -0.20280       30.79678        2.80000
H         -0.30059       29.20667        2.05423
H         -0.08721       30.64996        1.03836
H          8.05574       24.16465       -0.39905
H         12.90533       23.79161        0.75423
H         12.94921       25.22088        1.78880
H         13.03858       25.39949        0.02673
H          9.79178       28.70498        0.76396
H          9.20986       31.16634        1.21447
