99

C          0.89525       -1.78867       -3.80400
C          0.52639       -0.91880       -4.82308
C          0.28668        0.37180       -4.30658
C          0.47931        0.41614       -2.94199
S          0.94171       -1.02338       -2.25110
C          0.20972        1.72228       -2.48574
C         -0.15334        2.50523       -3.55743
C         -0.11755        1.69701       -4.77868
C         -0.38917        2.08013       -6.04109
C         -0.76896        3.41440       -6.35012
N         -1.07895        4.50474       -6.59840
C         -0.30808        1.17078       -7.13286
N         -0.24335        0.42889       -8.02161
C         -0.45542        3.82345       -3.15265
C         -0.30971        3.98075       -1.77014
S          0.21518        2.49838       -1.02121
C         -0.54324        5.17432       -0.97854
C         -0.42032        5.32961        0.40672
C         -0.74841        6.64231        0.81146
C         -1.09768        7.42301       -0.26562
S         -1.04539        6.66040       -1.73512
C         -1.42430        8.71486        0.18929
C         -1.28101        8.75715        1.55725
C         -0.84182        7.44367        2.03522
C         -0.58821        7.06305        3.30231
C         -0.72991        7.96122        4.39471
N         -0.84885        8.69419        5.28719
C         -0.16822        5.74177        3.61375
N          0.17459        4.65972        3.85818
C         -1.60146       10.03420        2.06636
C         -1.98503       10.90522        1.04285
S         -1.92821       10.13049       -0.51169
C         -2.38364       12.28949        1.16055
S         -1.74564       13.28798        2.43244
C         -2.61042       14.58926        1.87785
C         -3.39068       14.34061        0.76658
C         -3.25949       12.99997        0.33885
C         -4.15674       15.59593        0.32089
C         -3.74689       16.05054       -1.08096
C         -5.67212       15.41326        0.42744
C         -3.63454       16.55803        1.39175
C         -2.75784       15.94080        2.25749
S         -2.14080       16.92191        3.44260
C         -3.05769       18.27524        2.83056
C         -3.81371       17.91452        1.71727
C         -2.94131       19.52433        3.49689
C         -3.61074       20.60525        3.06885
C         -3.50047       21.85611        3.73175
C         -2.77747       22.20505        4.87352
C         -2.93343       23.56443        5.18298
C         -3.75753       24.19699        4.28231
S         -4.36457       23.22610        3.08468
C         -3.85331       25.55549        4.63487
C         -3.09157       25.77783        5.76009
C         -2.46856       24.52370        6.17898
C         -1.65997       24.29865        7.23215
C         -1.29757       25.34097        8.12785
N         -1.00477       26.19564        8.85386
C         -1.12635       23.00994        7.50794
N         -0.69090       21.95693        7.72979
C         -3.13320       27.13065        6.15039
C         -3.93204       27.88018        5.28464
S         -4.61786       26.89439        4.02726
C         -4.20390       29.29779        5.34197
C         -4.49463       30.15044        4.27553
C         -4.67276       31.47677        4.71878
C         -4.52597       31.57753        6.08393
S         -4.18545       30.14989        6.85745
C         -4.69162       32.92532        6.46248
C         -4.93959       33.67832        5.33376
C         -4.95132       32.80083        4.16240
C         -5.16753       33.13288        2.87488
C         -5.42176       34.47560        2.48285
N         -5.62718       35.57239        2.16438
C         -5.15511       32.15886        1.83948
N         -5.14516       31.36051        0.99650
C         -5.09378       35.04538        5.64468
C         -4.95493       35.25038        7.01215
S         -4.64475       33.78620        7.88387
H          1.14015       -2.83936       -3.88489
H          0.44584       -1.23854       -5.85471
H         -0.77232        4.63053       -3.80236
H         -0.11509        4.52074        1.05966
H         -1.57730       10.33549        3.10713
H         -3.77148       12.57061       -0.51348
H         -4.04130       15.31439       -1.83682
H         -2.66172       16.18873       -1.16037
H         -4.21616       17.00725       -1.33983
H         -6.02891       14.65383       -0.27688
H         -6.20022       16.34958        0.21034
H         -5.97315       15.09651        1.43350
H         -4.45642       18.59496        1.17461
H         -2.29101       19.56957        4.36618
H         -4.25582       20.55571        2.19631
H         -2.17451       21.49323        5.42163
H         -2.61065       27.56785        6.99225
H         -4.54423       29.80647        3.24936
H         -5.28754       35.85735        4.95462
H         -5.01606       36.18579        7.55218
