103

C         -0.66087        1.76305        0.44922
C          0.35552        1.90401       -0.49559
F          1.14652        2.98419       -0.44818
C          0.55881        0.93809       -1.47140
F          1.56629        1.05872       -2.34624
C         -0.28588       -0.15861       -1.55813
C         -1.33970       -0.29542       -0.64671
C         -1.50930        0.64660        0.41579
C         -2.50248        0.43878        1.40924
C         -3.34390       -0.65940        1.31255
C         -3.22380       -1.46559        0.17242
C         -2.23547       -1.34757       -0.78422
C         -4.27873       -2.46842        0.17023
O         -4.82637       -2.91260       -0.81508
C         -4.64698       -2.62260        1.60494
C         -4.38538       -1.28594        2.19320
C         -5.07284       -0.70289        3.20195
C         -6.10385       -1.39096        3.90628
N         -6.92582       -1.96896        4.48613
C         -4.86887        0.65656        3.56928
N         -4.70010        1.77041        3.84702
C         -4.89105       -3.81199        2.18455
C         -4.85951       -5.06641        1.48572
C         -4.11234       -5.48173        0.37440
C         -4.39153       -6.80778        0.00437
C         -5.26864       -7.39039        0.88519
S         -5.82301       -6.39448        2.09289
C         -5.41670       -8.74564        0.53420
C         -4.64177       -9.01468       -0.57295
C         -3.97787       -7.78362       -1.00438
C         -3.19911       -7.58417       -2.08722
C         -2.90591       -8.63485       -3.00013
N         -2.66214       -9.49084       -3.74481
C         -2.63733       -6.31054       -2.38822
N         -2.16121       -5.27869       -2.62812
C         -4.69324      -10.38258       -0.91618
C         -5.51051      -11.09031       -0.02975
S         -6.22291      -10.04750        1.16395
C         -5.79096      -12.50924       -0.01242
C         -6.08776      -13.28561        1.10746
C         -6.30459      -14.63673        0.73230
C         -6.16574      -14.78897       -0.61500
S         -5.78397      -13.40952       -1.49829
C         -6.35121      -16.05832       -1.10417
C         -6.65404      -17.02132       -0.18788
S         -6.68442      -16.20966        1.33639
C         -6.82443      -18.28063       -0.82132
C         -6.62931      -18.16553       -2.19684
S         -6.24437      -16.54796       -2.70871
C         -6.71706      -19.22522       -3.17874
C         -6.02454      -19.32796       -4.38826
C         -6.37938      -20.50440       -5.07973
C         -7.30302      -21.24004       -4.37433
S         -7.77731      -20.58016       -2.92974
C         -7.61271      -22.40310       -5.10315
C         -6.91498      -22.38985       -6.28794
C         -6.06365      -21.19880       -6.32879
C         -5.15578      -20.85688       -7.26368
C         -4.95065      -21.64389       -8.42517
N         -4.78258      -22.29596       -9.37600
C         -4.32127      -19.71325       -7.11164
N         -3.62864      -18.79585       -6.97485
C         -7.20183      -23.53262       -7.06382
C         -8.08734      -24.39384       -6.40582
S         -8.50027      -23.77258       -4.82517
C         -8.49916      -25.69276       -6.82594
C         -9.67489      -26.28969       -6.57953
C         -9.66813      -27.78451       -6.68901
O         -8.88585      -28.48941       -7.29133
C        -10.76775      -28.24645       -5.82979
C        -11.04102      -29.56926       -5.51683
C        -12.12383      -29.83673       -4.67491
C        -12.89610      -28.75588       -4.15368
C        -13.99679      -29.04236       -3.33150
C        -14.32444      -30.36157       -3.03114
C        -13.56207      -31.40853       -3.52826
C        -12.46390      -31.15661       -4.34341
F        -13.88143      -32.67568       -3.23237
F        -15.38978      -30.61169       -2.25799
C        -12.56173      -27.42120       -4.47405
C        -11.49931      -27.15748       -5.32950
C        -10.93912      -25.90750       -5.92940
C        -11.58903      -24.72352       -6.05296
C        -11.15707      -23.71187       -6.96336
N        -10.83687      -22.89450       -7.72265
C        -12.78073      -24.41487       -5.33873
N        -13.73468      -24.15785       -4.72977
H         -0.77969        2.53943        1.20015
H         -0.11049       -0.89543       -2.33857
H         -2.56853        1.13832        2.23792
H         -2.17323       -2.06847       -1.59594
H         -5.04973       -3.87346        3.25971
H         -3.40385       -4.84623       -0.13736
H         -4.15360      -10.85968       -1.72665
H         -6.13871      -12.91547        2.12375
H         -7.06696      -19.20085       -0.30505
H         -5.31004      -18.58284       -4.71828
H         -6.78764      -23.76664       -8.03806
H         -7.71778      -26.27604       -7.31749
H        -10.42258      -30.36303       -5.92884
H        -14.62045      -28.25015       -2.92461
H        -11.89044      -32.00057       -4.71797
H        -13.15912      -26.62512       -4.04086
