79

C          6.56034        2.15329        5.12379
C          5.30137        1.75659        5.55748
C          4.29529        2.41032        4.81215
C          4.82791        3.25641        3.86478
S          6.49136        3.30247        3.82881
C          3.77410        3.87387        3.15408
C          2.57369        3.42134        3.65004
C          2.83422        2.46131        4.73609
C          1.94684        1.77769        5.48603
C          0.54552        1.92185        5.28792
N         -0.59098        2.04359        5.10950
C          2.35858        0.87018        6.50552
N          2.69191        0.13058        7.33362
C          1.47997        4.01546        2.96937
C          1.90287        4.89559        1.96128
S          3.64701        4.96814        1.90916
C          1.08221        5.65983        1.02819
S          1.55355        7.19216        0.36553
C          0.12727        7.39535       -0.61353
C         -0.72070        6.33778       -0.35442
C         -0.15045        5.39799        0.51921
C         -1.05699        4.31244        0.68904
C         -2.25988        4.45800       -0.02084
C         -3.38025        3.52836       -0.09029
O         -4.38661        3.64544       -0.77883
O         -3.16182        2.49083        0.77099
C         -4.25793        1.58339        0.88376
S         -2.42438        5.98186       -0.86779
C         -0.10317        8.59770       -1.56727
C          0.40523        9.87259       -1.34374
C          1.21134       10.35920       -0.26540
N          1.87129       10.82089        0.57106
S         -0.09846       10.99810       -2.53100
C         -0.88974        9.82133       -3.48668
C         -0.81798        8.57789       -2.84821
C         -1.30911        7.39388       -3.48884
N         -1.69576        6.44172       -4.03793
C         -1.50370       10.21536       -4.75792
S         -2.94679        9.45866       -5.35486
C         -3.03310       10.39888       -6.79715
C         -2.00250       11.30373       -6.80183
C         -1.18141       11.18505       -5.66837
C         -0.14956       12.17865       -5.77503
C         -0.21445       12.95157       -6.94847
C          0.66159       14.05154       -7.33219
O          1.25180       14.78961       -6.55359
O          0.70361       14.16403       -8.69092
C          1.15041       15.42118       -9.19062
S         -1.57554       12.59093       -7.99110
C         -4.06033       10.24182       -7.81465
C         -3.98112       10.51928       -9.18698
C         -5.20267       10.25956       -9.85106
C         -6.15191        9.77986       -8.98215
S         -5.65058        9.64291       -7.40593
C         -7.34048        9.52245       -9.69845
C         -7.13974        9.83570      -11.02625
C         -5.77372       10.32979      -11.20218
C         -5.18900       10.75302      -12.34438
C         -5.88271       10.75620      -13.58544
N         -6.44623       10.76062      -14.59973
C         -3.84727       11.21902      -12.36260
N         -2.75168       11.60298      -12.38039
C         -8.28956        9.59036      -11.80373
C         -9.31485        9.09309      -11.00863
S         -8.85802        8.93857       -9.34512
H          7.52316        1.82923        5.49763
H          5.16847        1.04015        6.36035
H          0.43656        3.82983        3.18796
H         -0.86726        3.43494        1.29646
H         -3.94576        0.75895        1.53042
H         -4.53305        1.17296       -0.09268
H         -5.11176        2.08492        1.35009
H          0.63525       12.34664       -5.04657
H          1.14849       15.36244      -10.28328
H          2.16160       15.66102       -8.85219
H          0.44026       16.19808       -8.89198
H         -3.08187       10.88220       -9.66643
H         -8.41074        9.74628      -12.86994
H        -10.31304        8.80891      -11.31443
