99

C         -4.58718        2.45241        1.74447
C         -4.54284        2.82890        3.08573
F         -4.85876        4.08693        3.42091
C         -4.18274        1.91758        4.06874
F         -4.16506        2.28337        5.35750
C         -3.83216        0.61868        3.72739
C         -3.84574        0.22616        2.38281
C         -4.25612        1.14402        1.36613
C         -4.33104        0.73262        0.01241
C         -3.96740       -0.56145       -0.32898
C         -3.50355       -1.40208        0.69360
C         -3.45189       -1.06081        2.03203
C         -3.12737       -2.70077        0.14239
O         -2.31534       -3.46234        0.62061
C         -3.82534       -2.76987       -1.17561
C         -3.99315       -1.35900       -1.59551
C         -4.01166       -0.88737       -2.86383
C         -3.91352       -1.75213       -3.99297
N         -3.84515       -2.46862       -4.90272
C         -4.05390        0.50426       -3.15510
N         -4.08652        1.64221       -3.37782
C         -4.40861       -3.87000       -1.68015
C         -4.49518       -5.12793       -1.00623
C         -4.58646       -5.43342        0.35799
C         -4.70943       -6.81723        0.58042
C         -4.79963       -7.49959       -0.60696
S         -4.64006       -6.57492       -1.97242
C         -5.02467       -8.85771       -0.32919
C         -5.05254       -9.04490        1.03482
C         -4.81348       -7.76291        1.69125
C         -4.66167       -7.51905        3.00706
C         -4.73561       -8.55825        3.97227
N         -4.79406       -9.40464        4.76333
C         -4.39582       -6.21696        3.49755
N         -4.21248       -5.13614        3.89329
C         -5.30730      -10.39027        1.36531
C         -5.48228      -11.15137        0.21167
S         -5.29761      -10.21172       -1.23486
C         -5.79050      -12.54787        0.13088
N         -5.93711      -13.18766       -1.08094
C         -6.23705      -14.49075       -0.83624
C         -6.51853      -15.70685       -1.49089
C         -6.72498      -16.61714       -0.46790
N         -6.57517      -15.98493        0.74695
C         -6.27645      -14.67751        0.50312
C         -5.99532      -13.45699        1.15571
C         -7.03301      -17.99465       -0.43080
C         -7.19601      -18.69857       -1.56169
C         -7.46623      -20.09818       -1.55443
S         -8.34092      -20.83005       -0.27961
C         -8.19087      -22.40330       -0.92482
C         -7.49371      -22.38376       -2.12492
C         -7.12490      -21.03898       -2.51538
C         -6.36819      -20.74233       -3.78723
C         -6.30141      -21.94658       -4.73424
C         -6.02224      -23.25979       -3.99552
C         -4.66297      -23.26695       -3.31564
O         -3.84621      -22.35328       -3.37668
C         -7.13154      -23.56858       -2.98166
C         -8.78229      -23.50634       -0.19762
C         -8.91971      -23.61989        1.19060
C         -9.58069      -24.81205        1.54368
C         -9.91856      -25.54551        0.42983
S         -9.50098      -24.85691       -1.01769
C        -10.56709      -26.72596        0.83919
C        -10.64468      -26.73707        2.21582
C        -10.02572      -25.51941        2.74392
C         -9.89869      -25.13960        4.03038
C        -10.38513      -25.94532        5.09589
N        -10.78283      -26.60784        5.96236
C         -9.27421      -23.91446        4.39383
N         -8.76515      -22.91501        4.69282
C        -11.28742      -27.90036        2.68687
C        -11.65932      -28.71433        1.62334
S        -11.22516      -28.05183        0.08385
H         -4.87666        3.19655        1.00736
H         -3.54989       -0.07262        4.51802
H         -4.68835        1.44034       -0.73038
H         -3.12579       -1.79202        2.76781
H         -4.96104       -3.81341       -2.61514
H         -4.57026       -4.67696        1.13129
H         -5.38342      -10.81285        2.36139
H         -5.84847      -12.78628       -2.00561
H         -6.56000      -15.89148       -2.55490
H         -6.65755      -16.37657        1.67673
H         -5.95212      -13.26851        2.21907
H         -7.11396      -18.47225        0.54216
H         -7.07883      -18.22177       -2.52985
H         -5.35490      -20.41803       -3.52286
H         -6.83158      -19.90364       -4.31980
H         -5.53616      -21.76789       -5.49913
H         -7.25842      -22.03835       -5.26584
H         -5.98799      -24.07855       -4.72569
H         -4.40257      -24.19984       -2.78822
H         -6.82690      -24.40919       -2.34787
H         -8.03136      -23.87154       -3.53296
H         -8.55554      -22.86500        1.87803
H        -11.48567      -28.16775        3.71720
H        -12.16610      -29.66896        1.66379
