89

C          2.83870        0.30765       -6.75365
C          1.83788        1.01945       -7.40394
C          1.36976        2.06894       -6.58631
C          2.02489        2.09828       -5.37299
S          3.18465        0.92440       -5.17275
C          1.50632        3.15656       -4.59989
C          0.52655        3.79839       -5.32359
C          0.38394        3.14997       -6.62804
C         -0.45517        3.47158       -7.63197
C         -1.36239        4.56130       -7.52875
N         -2.10227        5.45120       -7.44166
C         -0.47776        2.73892       -8.85029
N         -0.49541        2.13920       -9.84380
C         -0.03826        4.86406       -4.59352
C          0.54420        4.97404       -3.32812
S          1.77700        3.77458       -3.08393
C          0.22995        5.93560       -2.29601
C          0.34523        5.78541       -0.91037
C         -0.07235        6.95131       -0.23365
C         -0.47070        7.92169       -1.12271
S         -0.37087        7.50882       -2.72308
C         -0.87712        9.05809       -0.40472
C         -0.74415        8.81470        0.94051
C         -0.22153        7.46182        1.13195
C          0.05787        6.84077        2.29698
C         -0.14271        7.47927        3.55005
N         -0.31251        8.00531        4.56993
C          0.56981        5.51531        2.32786
N          0.98874        4.43609        2.34251
C         -1.14947        9.92678        1.70805
C         -1.55579       10.98514        0.89401
S         -1.44173       10.55799       -0.79849
C         -2.03899       12.29285        1.29166
S         -3.18834       13.07760        0.29778
C         -3.32291       14.44626        1.31411
C         -2.46363       14.31991        2.39201
C         -1.73489       13.07990        2.39278
S         -0.54784       12.65358        3.64230
C         -0.86115       13.82008        4.88759
O         -1.06308       13.61492        6.06660
C         -0.70376       15.16796        4.22409
O          0.30751       15.83215        4.14201
S         -2.29005       15.55904        3.64787
C         -4.19483       15.51547        0.94999
C         -5.32822       15.29201        0.26463
C         -6.20086       16.33979       -0.12074
C         -6.11349       17.71317        0.09923
C         -7.20914       18.38701       -0.45933
C         -8.07438       17.52095       -1.08298
S         -7.63528       15.92688       -1.02462
C         -9.13670       18.25975       -1.62973
C         -8.94229       19.59275       -1.35118
C         -7.70763       19.75013       -0.58356
C         -7.15302       20.87726       -0.09579
C         -7.75675       22.14388       -0.29026
N         -8.25412       23.18101       -0.45034
C         -5.93663       20.85592        0.64289
N         -4.94432       20.82980        1.24485
C         -9.97453       20.38320       -1.89207
C        -10.91677       19.59879       -2.56552
S        -10.49918       17.90995       -2.50000
C        -12.10999       20.03434       -3.26098
C        -13.04775       19.24339       -3.93159
C        -14.07384       20.02894       -4.49267
C        -13.88160       21.36648       -4.23471
S        -12.52946       21.72142       -3.34554
C        -14.92904       22.10050       -4.82425
C        -15.78612       21.22438       -5.45618
C        -15.29466       19.85788       -5.27949
C        -15.83911       18.71105       -5.73200
C        -17.04229       18.70523       -6.48868
N        -18.02497       18.70356       -7.10615
C        -15.24367       17.44638       -5.47601
N        -14.75633       16.41333       -5.26590
C        -16.85732       21.90275       -6.07288
C        -16.74652       23.27282       -5.86759
S        -15.35235       23.70373       -4.93545
H          3.38976       -0.54774       -7.12085
H          1.49920        0.76258       -8.40006
H         -0.83059        5.52082       -4.93295
H          0.69890        4.87200       -0.44777
H         -1.15905        9.97713        2.78855
H         -3.90907       16.51667        1.26004
H         -5.61971       14.28414       -0.02260
H         -5.29261       18.16955        0.63571
H        -10.04873       21.46094       -1.81650
H        -12.96895       18.16500       -3.99826
H        -17.67194       21.46587       -6.63683
H        -17.41108       24.05178       -6.21599
