105

C         -7.54106        0.15242       -5.68718
C         -8.91978        0.27010       -5.84690
F         -9.40176        0.95329       -6.89397
C         -9.78920       -0.31056       -4.93482
F        -11.11444       -0.20315       -5.10081
C         -9.29736       -1.00683       -3.83726
C         -7.91439       -1.12852       -3.64797
C         -7.01277       -0.55240       -4.59474
C         -5.61717       -0.70994       -4.43690
C         -5.12516       -1.42025       -3.34963
C         -6.04209       -1.96005       -2.43538
C         -7.41458       -1.82869       -2.54934
C         -5.35282       -2.77476       -1.42850
O         -5.83988       -3.19540       -0.40166
C         -3.95606       -2.92936       -1.94803
C         -3.75521       -1.84864       -2.93777
C         -2.58039       -1.26872       -3.28694
C         -1.33467       -1.69834       -2.73737
N         -0.32878       -2.07036       -2.29506
C         -2.50945       -0.15731       -4.17530
N         -2.45547        0.74288       -4.90600
C         -3.20729       -4.02122       -1.72770
C         -3.65450       -5.12047       -0.94410
C         -3.50055       -5.34724        0.42249
C         -3.95008       -6.63744        0.77579
C         -4.48993       -7.29834       -0.30238
S         -4.45412       -6.45357       -1.73138
C         -4.85701       -8.59912        0.09633
C         -4.53029       -8.77988        1.41955
C         -3.95994       -7.52646        1.93919
C         -3.52489       -7.24483        3.18285
C         -3.54642       -8.22194        4.21117
N         -3.54837       -9.02529        5.04827
C         -3.01400       -5.96026        3.53000
N         -2.59491       -4.91452        3.81495
C         -4.80292      -10.11255        1.82873
C         -5.38643      -10.87613        0.79763
S         -5.49332       -9.92401       -0.65842
C         -5.81609      -12.30713        0.79560
S         -4.73403      -13.37412        1.77271
C         -4.89371      -14.93860        0.98130
C         -3.87793      -15.86500        0.89843
S         -4.37065      -17.29055        0.08107
C         -5.95520      -16.67986       -0.13911
C         -6.08772      -15.41213        0.38072
S         -7.57277      -14.49355        0.32254
C         -6.94627      -12.82759        0.12112
C         -7.79516      -12.08382       -0.81506
C         -7.57724      -12.14514       -2.14089
C         -8.37677      -11.41093       -3.06257
C         -9.06629      -10.20946       -2.88503
C         -9.71221       -9.80640       -4.06826
C         -9.49581      -10.69459       -5.09846
S         -8.54479      -11.99587       -4.69969
C        -10.12340      -10.20047       -6.26270
C        -10.73096       -9.00302       -5.95898
C        -10.51382       -8.68715       -4.55121
C        -10.92980       -7.60161       -3.87140
C        -11.67449       -6.56947       -4.50421
N        -12.26597       -5.73432       -5.05188
C        -10.63484       -7.42090       -2.49109
N        -10.39664       -7.26935       -1.36901
C        -11.35336       -8.43162       -7.08204
C        -11.11475       -9.18574       -8.23197
S        -10.27505      -10.66746       -7.85016
C        -11.49107       -8.92791       -9.57944
C        -11.51721       -7.70632      -10.13262
C        -12.33085       -7.55003      -11.38315
O        -12.65328       -8.40599      -12.17893
C        -12.74848       -6.13715      -11.39741
C        -13.65894       -5.56347      -12.26859
C        -14.00862       -4.22376      -12.06418
C        -13.45306       -3.50482      -10.96187
C        -13.82406       -2.16882      -10.75650
C        -14.71542       -1.55086      -11.62677
C        -15.25040       -2.24786      -12.70084
C        -14.90799       -3.57783      -12.92359
F        -16.10492       -1.64363      -13.53725
F        -15.05084       -0.27059      -11.41918
C        -12.53729       -4.12928      -10.09475
C        -12.15331       -5.44022      -10.33462
C        -11.17809       -6.35028       -9.67444
C        -10.05468       -5.94547       -9.03150
C         -8.98611       -6.83186       -8.70602
N         -8.08042       -7.50273       -8.43091
C         -9.79780       -4.58024       -8.71093
N         -9.58866       -3.47264       -8.43478
H         -6.89478        0.61680       -6.42757
H        -10.00555       -1.45247       -3.14363
H         -4.95691       -0.30162       -5.19709
H         -8.06516       -2.29835       -1.81615
H         -2.26067       -4.17428       -2.23716
H         -3.03792       -4.61871        1.07675
H         -4.58937      -10.52361        2.80963
H         -2.86574      -15.78638        1.26990
H         -6.70217      -17.27902       -0.64357
H         -8.60913      -11.51859       -0.37298
H         -6.76429      -12.75148       -2.53894
H         -9.05158       -9.66735       -1.94779
H        -11.91057       -7.50418       -7.09750
H        -11.86747       -9.77751      -10.15224
H        -14.08723       -6.15492      -13.07383
H        -13.42220       -1.58966       -9.92840
H        -15.34850       -4.09292      -13.77303
H        -12.15403       -3.56865       -9.24649
