96

C         -3.59630        1.36074       -1.96783
C         -2.69211        1.42212       -3.02636
F         -1.94703        2.52445       -3.18459
C         -2.55434        0.35880       -3.90727
F         -1.67060        0.42075       -4.91226
C         -3.33089       -0.78146       -3.75794
C         -4.25550       -0.85805       -2.70872
C         -4.38855        0.22031       -1.78054
C         -5.29462        0.12668       -0.69326
C         -6.07052       -1.01204       -0.54162
C         -5.91889       -2.02862       -1.49149
C         -5.04372       -1.99206       -2.56255
C         -6.77719       -3.15736       -1.17067
O         -7.09835       -4.00718       -1.97421
C         -7.23866       -2.93006        0.24186
C         -7.06315       -1.47715        0.47896
C         -7.77964       -0.71058        1.32899
C         -8.80713       -1.24350        2.17298
N         -9.63420       -1.68192        2.86665
C         -7.61818        0.70220        1.39912
N         -7.47368        1.85846        1.44604
C         -7.49093       -3.89436        1.14686
C         -7.41220       -5.29108        0.90920
N         -7.72806       -5.78929       -0.33126
C         -7.50471       -7.12395       -0.32995
C         -7.53466       -8.24009       -1.18452
C         -7.15779       -9.28959       -0.37388
N         -6.91941       -8.83656        0.90531
C         -7.12307       -7.49144        0.91175
C         -7.08035       -6.34802        1.74394
C         -7.03482      -10.66058       -0.65626
C         -6.12456      -11.41181       -0.02716
C         -5.95232      -12.83205       -0.29417
C         -5.51722      -13.64558        0.75276
C         -5.31998      -15.00301        0.53066
F         -4.90743      -15.74883        1.56872
C         -5.54093      -15.57973       -0.73085
C         -5.96775      -14.75039       -1.77269
C         -6.15883      -13.39675       -1.55534
F         -6.53824      -12.64747       -2.60131
C         -5.34016      -17.00779       -0.98752
N         -4.91580      -17.87802       -0.00165
C         -4.86237      -19.13350       -0.52671
C         -4.57588      -20.47547       -0.18582
C         -4.78427      -21.18494       -1.35486
N         -5.14317      -20.32209       -2.36580
C         -5.21064      -19.06781       -1.83177
C         -5.52041      -17.73142       -2.16221
C         -4.65104      -22.54904       -1.68869
C         -5.67201      -23.41855       -1.66691
C         -7.02591      -23.16088       -1.22224
C         -8.13127      -23.81936       -1.59865
C         -9.35890      -23.67158       -0.74922
O         -9.63329      -22.78909        0.03560
C        -10.15283      -24.88499       -1.00244
C        -11.28775      -25.27042       -0.30775
C        -11.86052      -26.50752       -0.61879
C        -11.25426      -27.34086       -1.60767
C        -11.83070      -28.58699       -1.89477
C        -12.98521      -28.99370       -1.23270
C        -13.57603      -28.17843       -0.27797
C        -13.02062      -26.94299        0.03730
F        -14.69124      -28.57442        0.35005
F        -13.52517      -30.18338       -1.53023
C        -10.09558      -26.91105       -2.28772
C         -9.55715      -25.66240       -2.00772
C         -8.40456      -24.89494       -2.56229
C         -7.92896      -25.00254       -3.82915
C         -7.05930      -24.02790       -4.40652
N         -6.37096      -23.24209       -4.91207
C         -8.34781      -26.03408       -4.72320
N         -8.68459      -26.88435       -5.43540
H         -3.67065        2.21406       -1.29953
H         -3.20113       -1.59984       -4.46206
H         -5.34386        0.94741        0.01676
H         -4.97577       -2.84110       -3.23868
H         -7.66504       -3.63422        2.18894
H         -7.97372       -5.28425       -1.17848
H         -7.78784       -8.27411       -2.23537
H         -6.64790       -9.37162        1.71858
H         -6.81048       -6.30476        2.79043
H         -7.68203      -11.06217       -1.43307
H         -5.45845      -10.99048        0.71993
H         -5.33608      -13.24496        1.74597
H         -6.15615      -15.12763       -2.77097
H         -4.69273      -17.65229        0.96091
H         -4.27036      -20.86585        0.77410
H         -5.34230      -20.53907       -3.33538
H         -5.84434      -17.35531       -3.12251
H         -3.67338      -22.88310       -2.02714
H         -5.45020      -24.43629       -1.98066
H         -7.11231      -22.42256       -0.42043
H        -11.69796      -24.62201        0.46249
H        -11.39962      -29.25241       -2.63864
H        -13.50743      -26.33118        0.79230
H         -9.64124      -27.57567       -3.01715
