79

C         -1.96568       -2.92431        4.75913
C         -1.69783       -2.77035        3.40447
C         -1.57384       -1.40275        3.08023
C         -1.75628       -0.59720        4.18508
S         -2.06140       -1.41379        5.60159
C         -1.63088        0.75259        3.79291
C         -1.36171        0.80127        2.44268
C         -1.31238       -0.56248        1.91039
C         -1.09013       -0.95798        0.64508
C         -0.86621       -0.02366       -0.40163
N         -0.68791        0.73942       -1.26340
C         -1.08111       -2.32900        0.27328
N         -1.07845       -3.45325       -0.02507
C         -1.21914        2.13150        1.99243
C         -1.41442        3.04254        3.03433
S         -1.75350        2.23333        4.53717
C         -1.37226        4.46765        2.99744
C         -0.23235        5.16125        3.13820
C         -0.11237        6.59843        3.00471
C          1.15845        7.01787        2.89165
C          2.11975        5.92832        2.89729
S          1.32818        4.44513        3.42518
C          3.37884        5.95301        2.42636
C          4.09655        7.08905        1.87447
C          5.16301        6.73701        1.13792
C          5.32487        5.30352        1.03779
S          4.32858        4.48412        2.20135
C          6.06637        4.67582        0.11800
C          6.02959        3.24718       -0.14368
C          7.06586        2.40762       -0.04347
C          7.06333        1.04346       -0.51628
C          8.29862        0.53730       -0.65520
C          9.34622        1.46179       -0.25436
S          8.63038        2.85148        0.56720
C         10.65195        1.40544       -0.57167
C         11.29299        0.47654       -1.48089
C         12.47731        0.92000       -1.93697
C         12.85929        2.21221       -1.39335
S         11.81263        2.62086       -0.06420
C         13.85259        2.97700       -1.87769
C         14.16580        4.31071       -1.45495
S         15.76493        4.90333       -1.65816
C         15.40342        6.48671       -1.05118
C         14.05676        6.55265       -0.72266
C         13.36406        5.32327       -0.96164
N         13.36335        7.73218       -0.28492
O         13.78213        8.29131        0.73326
O         12.38003        8.06879       -0.95957
C         16.41315        7.53501       -1.16764
S         15.91389        9.07621       -1.80988
C         17.50582        9.57219       -2.15064
C         18.40698        8.61934       -1.76179
C         17.80075        7.51317       -1.03383
C         18.60728        6.52127       -0.42850
C         18.13922        5.57565        0.52925
N         17.80993        4.81744        1.34443
C         19.98875        6.64869       -0.72202
C         20.53612        7.70321       -1.51161
C         19.76945        8.76394       -2.02832
H         -2.11225       -3.84693        5.30487
H         -1.60834       -3.61550        2.73281
H         -0.98588        2.45090        0.98322
H         -2.30223        4.98482        2.78404
H         -0.96896        7.25507        2.95621
H          1.43730        8.05043        2.73500
H          3.78020        8.11339        2.00902
H          5.79500        7.43580        0.60682
H          6.67057        5.25518       -0.57720
H          5.08103        2.88374       -0.53570
H          6.15739        0.52165       -0.79241
H          8.49804       -0.44926       -1.04772
H         10.82566       -0.43611       -1.82240
H         13.06780        0.40057       -2.67929
H         14.45059        2.57790       -2.69489
H         12.29530        5.22615       -0.80715
H         17.68712       10.52385       -2.63158
H         20.68506        5.91338       -0.31300
H         21.61092        7.70303       -1.70023
H         20.20795        9.57739       -2.59330
