92

C         -4.38537        0.66208        1.60623
C         -3.06939        0.35300        1.31392
C         -2.29219        1.52744        1.24896
C         -3.04586        2.65663        1.49047
S         -4.65493        2.36797        1.79403
C         -2.20533        3.79156        1.42569
C         -0.92802        3.36820        1.14368
C         -0.90417        1.91370        1.00315
C          0.14703        1.12440        0.71579
C          1.45347        1.63585        0.48477
N          2.53614        2.00494        0.29089
C          0.01178       -0.28883        0.62324
N         -0.08083       -1.44302        0.55025
C         -0.02420        4.44050        1.11071
C         -0.65417        5.67001        1.33591
S         -2.36270        5.43306        1.63374
C         -0.10400        6.99111        1.43220
C          0.99102        7.41489        0.77819
C          1.68707        8.65642        1.05717
C          2.96328        8.64791        0.63058
C          3.33408        7.39263       -0.00173
S          1.86733        6.53326       -0.44632
C          4.56360        6.85324       -0.09441
C          5.81376        7.43522        0.34694
C          6.81792        6.54799        0.43934
C          6.43692        5.19236        0.08321
S          4.83929        5.19704       -0.61509
C          7.19682        4.11084        0.33530
C          6.84140        2.74800        0.06467
C          6.05485        2.18810       -0.94526
C          5.99668        0.78607       -0.85947
C          6.71669        0.30598        0.20859
S          7.48259        1.48152        1.10091
C          6.58786       -1.10275        0.23993
C          5.80027       -1.50294       -0.81910
C          5.42821       -0.32860       -1.61008
C          4.79399       -0.28174       -2.79669
C          4.51218       -1.46759       -3.52675
N          4.31870       -2.42951       -4.14716
C          4.44007        0.95120       -3.42343
N          4.13154        1.93720       -3.94519
C          5.50916       -2.88585       -0.76793
C          6.12093       -3.48891        0.33204
S          7.07212       -2.33646        1.24270
C          6.02599       -4.83034        0.81869
C          6.84238       -5.82053        0.43413
C          6.88686       -7.12827        1.05401
C          8.00073       -7.81886        0.75998
C          8.90619       -7.09457       -0.11882
S          8.07893       -5.68248       -0.78311
C         10.22066       -7.32144       -0.30113
C         11.03755       -8.33314        0.34635
C         12.34880       -8.03896        0.33416
C         12.64030       -6.77714       -0.31787
S         11.25822       -6.23594       -1.22887
C         13.77537       -6.08139       -0.15446
C         13.96529       -4.76117       -0.65904
C         14.55010       -4.35536       -1.85737
C         14.64905       -2.94938       -1.92541
C         14.05320       -2.33813       -0.84386
S         13.47197       -3.38904        0.30476
C         14.13582       -0.93710       -1.00995
C         14.78972       -0.66719       -2.19533
C         15.18829       -1.92656       -2.82022
C         15.96769       -2.10327       -3.90294
C         16.43802       -1.00651       -4.67640
N         16.82111       -0.11036       -5.30683
C         16.42685       -3.39419       -4.28411
N         16.82946       -4.44575       -4.56855
C         14.91945        0.71899       -2.42275
C         14.36307        1.43573       -1.37127
S         13.68019        0.41259       -0.14930
H         -5.22274       -0.01895        1.72101
H         -2.73204       -0.66648        1.16722
H          1.04178        4.34452        0.95217
H         -0.56651        7.65606        2.15863
H          1.24065        9.46744        1.61517
H          3.66243        9.45297        0.80143
H          5.91569        8.47959        0.60415
H          7.81299        6.80179        0.77835
H          8.15385        4.26538        0.83003
H          5.56675        2.78208       -1.70510
H          4.85949       -3.43213       -1.44132
H          5.30692       -5.00230        1.61417
H          6.12501       -7.47712        1.73832
H          8.23008       -8.78710        1.18193
H         10.62813       -9.19923        0.84725
H         13.10876       -8.63544        0.82033
H         14.57393       -6.48480        0.46104
H         14.89277       -5.06444       -2.60075
H         15.39308        1.20309       -3.26818
H         14.32629        2.51066       -1.25147
