87

C          4.39982       -0.10741       -4.96280
C          5.01756        1.09305       -5.29233
C          4.34121        2.17583       -4.69199
C          3.25955        1.75048       -3.94980
S          3.02112        0.10525       -3.93649
C          2.62033        2.87467       -3.38811
C          3.29492        4.01069       -3.77252
C          4.43116        3.63509       -4.61830
C          5.34679        4.43955       -5.19275
C          5.31031        5.84979       -5.02669
N          5.27886        7.00297       -4.88895
C          6.40289        3.92030       -5.99270
N          7.26518        3.49634       -6.64263
C          2.68696        5.17177       -3.24678
C          1.56054        4.86023       -2.47561
S          1.29795        3.13813       -2.42274
C          0.66965        5.77503       -1.78034
C         -0.46034        5.47166       -1.01091
C         -1.07077        6.64188       -0.50034
C         -0.39197        7.77317       -0.89079
S          0.93803        7.49643       -1.84123
C         -1.03973        8.90981       -0.36025
C         -2.13599        8.50209        0.36543
C         -2.21833        7.03470        0.32467
C         -3.12784        6.23241        0.91232
C         -4.19425        6.76089        1.69355
N         -5.05844        7.19058        2.33196
C         -3.06661        4.81650        0.79604
N         -3.01200        3.65935        0.70581
C         -2.82849        9.61044        0.91311
C         -2.21433       10.82652        0.57725
S         -0.79287       10.55284       -0.40354
C         -2.58341       12.17237        0.92504
C         -2.07785       12.70068        2.05702
C         -2.42965       14.02575        2.50111
C         -3.27717       14.92893        1.71473
C         -3.85188       14.59079        0.56158
S         -3.68176       13.00956       -0.16527
C         -3.35168       16.14231        2.43412
C         -2.62621       16.03216        3.59628
C         -2.64419       17.19680        4.38228
C         -3.40781       18.17284        3.75516
S         -4.07694       17.63519        2.24316
C         -2.06773       14.70109        3.62898
C         -1.22183       14.21386        4.68297
C         -1.49419       13.13549        5.43713
C         -0.59440       12.67787        6.49646
C          0.22389       13.55589        7.22955
C          1.08039       13.13277        8.26489
C          1.20081       11.78902        8.68873
C          0.39576       10.84292        7.98308
C         -0.52479       11.29907        6.85952
N         -1.19805       10.27824        6.29664
S         -0.75999        8.90101        7.10723
N          0.32254        9.51576        8.19480
C          2.07137       11.36684        9.79257
C          2.73904       10.15525        9.99410
C          3.44474       10.15196       11.21510
C          3.30035       11.34511       11.88404
S          2.35445       12.46698       11.11729
C          4.01461       11.28190       13.09660
C          4.61345       10.04410       13.19610
C          4.28682        9.25489       12.00618
C          4.66751        7.99680       11.71218
C          5.49691        7.24616       12.58933
N          6.17639        6.63675       13.30567
C          4.26605        7.35063       10.51100
N          3.94685        6.81593        9.53155
C          5.34022        9.91641       14.39843
C          5.24472       11.08162       15.15027
S          4.28226       12.29981       14.38324
H          4.68211       -1.10525       -5.27100
H          5.89293        1.13697       -5.92869
H          3.02458        6.18845       -3.40802
H         -0.80066        4.45536       -0.84799
H         -3.72585        9.56642        1.51935
H         -1.38060       12.14033        2.67284
H         -4.47551       15.30684        0.03481
H         -2.14754       17.34034        5.33357
H         -3.61399       19.17845        4.09773
H         -0.31815       14.79951        4.82975
H         -2.40387       12.55787        5.28193
H          0.20307       14.62135        6.99667
H          1.67152       13.90766        8.75375
H          2.68849        9.33583        9.28657
H          5.90416        9.05559       14.73561
H          5.68817       11.28705       16.11541
