94

C         -0.59881       -2.94625        1.75978
C         -1.94455       -2.60193        1.79487
C         -2.10701       -1.22464        1.53514
C         -0.89645       -0.59845        1.32167
S          0.43082       -1.59656        1.41312
C         -1.12685        0.77478        1.08994
C         -2.48098        1.01664        1.15689
C         -3.18370       -0.23870        1.43272
C         -4.50951       -0.44120        1.56142
C         -5.44325        0.62172        1.42931
N         -6.20366        1.49194        1.32019
C         -5.04708       -1.72970        1.83331
N         -5.48437       -2.78151        2.05594
C         -2.77377        2.38374        0.95870
C         -1.60996        3.12834        0.75158
S         -0.19428        2.11490        0.78553
C         -1.49633        4.55881        0.55064
C         -0.52831        5.24690       -0.18479
C         -0.73041        6.64386       -0.11946
C         -1.82799        6.96184        0.64874
S         -2.63152        5.65571        1.28665
C         -1.96347        8.36690        0.69542
C         -0.95033        8.93821       -0.04280
C         -0.11362        7.87739       -0.61161
C          0.97237        8.00436       -1.40321
C          1.46338        9.27913       -1.79269
N          1.86605       10.32192       -2.10388
C          1.68276        6.86958       -1.88848
N          2.25938        5.94524       -2.28291
C         -1.01952       10.34998       -0.01288
C         -2.09428       10.79254        0.76560
S         -3.00040        9.44712        1.41562
C         -2.48594       12.13032        1.09502
C         -1.98390       12.66541        2.22497
C         -2.32039       14.00002        2.64410
C         -3.20397       14.87341        1.85960
C         -3.78346       14.51645        0.71405
S         -3.57393       12.94406       -0.01504
C         -3.29888       16.09034        2.56869
C         -2.55970       16.00696        3.72308
C         -2.58116       17.17967        4.49424
C         -3.35487       18.14055        3.85806
S         -4.03743       17.57400        2.36250
C         -1.95209       14.69990        3.75497
C         -1.11991       14.25324        4.83787
C          0.15284       13.85712        4.69058
C          0.93493       13.44793        5.80671
C          0.60403       13.37210        7.16322
C          1.67071       12.87390        7.92967
C          2.76897       12.61077        7.14698
S          2.57988       12.93551        5.53301
C          3.78899       12.09124        7.96313
C          3.33514       12.02368        9.26022
C          1.96405       12.52772        9.31828
C          1.15701       12.64215       10.39030
C          1.58440       12.25994       11.69089
N          1.93608       11.94782       12.75178
C         -0.16711       13.15279       10.27901
N         -1.24382       13.57062       10.17810
C          4.31035       11.47651       10.11704
C          5.47446       11.14855        9.41563
S          5.33072       11.54098        7.72587
C          6.68540       10.54424        9.92844
C          7.84114       10.20920        9.21741
C          8.79924        9.60456       10.05402
C          8.34865        9.51250       11.35035
S          6.83159       10.12436       11.61073
C          9.33411        8.88129       12.13264
C         10.41091        8.57216       11.32850
C         10.13664        9.02175        9.96233
C         10.92691        8.92065        8.87588
C         12.21188        8.31889        8.94387
N         13.26118        7.82643        9.00138
C         10.51894        9.40814        7.60401
N         10.18262        9.80596        6.56763
C         11.42611        7.91670       12.05465
C         11.05241        7.76772       13.38505
S          9.48708        8.42563       13.72325
H         -0.16035       -3.92211        1.92242
H         -2.72171       -3.32742        2.00267
H         -3.75959        2.83283        0.96698
H          0.26460        4.74017       -0.72205
H         -0.34041       11.04138       -0.49822
H         -1.30742       12.09358        2.85314
H         -4.42810       15.21352        0.18783
H         -2.06780       17.34270        5.43359
H         -3.55597       19.15203        4.18470
H         -1.59757       14.29992        5.81272
H          0.61090       13.85122        3.70263
H         -0.36903       13.65054        7.54511
H          4.19472       11.30628       11.18060
H          7.95183       10.38876        8.15490
H         12.37439        7.55651       11.67579
H         11.61350        7.30320       14.18441
