80

C          4.71356       -1.51656        0.70031
C          4.76592       -0.90235        1.94594
C          4.10183        0.34181        1.91033
C          3.58781        0.60504        0.65819
S          3.86387       -0.57546       -0.47885
C          2.94413        1.85808        0.68447
C          3.04919        2.38846        1.94944
C          3.78744        1.45741        2.80447
C          4.10324        1.59086        4.10733
C          3.72425        2.73937        4.85493
N          3.41387        3.67584        5.46504
C          4.83192        0.59038        4.80436
N          5.42837       -0.23045        5.37198
C          2.42363        3.65101        2.02982
C          1.86288        4.02326        0.80284
S          2.12962        2.80134       -0.40777
C          1.13825        5.23872        0.48492
C          0.58868        5.62585       -0.74348
C         -0.04662        6.88357       -0.65326
C          0.04691        7.39266        0.61953
S          0.85336        6.44243        1.70879
C         -0.59042        8.64439        0.66028
C         -1.09122        8.93877       -0.58638
C         -0.78043        7.83276       -1.49685
C         -1.09846        7.71365       -2.80075
C         -1.82361        8.72545       -3.48873
N         -2.41619        9.55050       -4.05265
C         -0.72834        6.56651       -3.55627
N         -0.42480        5.62911       -4.16950
C         -1.73184       10.19805       -0.59250
C         -1.68463       10.79755        0.67309
S         -0.85394        9.78970        1.82306
C         -2.21652       12.08781        1.11200
N         -2.83487       12.84489        0.19300
C         -3.31174       14.02307        0.66679
C         -3.19068       14.44916        1.98232
N         -2.54992       13.63769        2.84413
N         -2.05667       12.44096        2.40506
C         -3.69280       15.70825        2.51418
C         -3.11187       16.42157        3.59154
F         -2.00287       15.93237        4.17199
C         -3.59683       17.65659        4.09022
F         -2.93080       18.23708        5.10298
C         -4.71967       18.31187        3.56752
C         -5.35511       17.62918        2.50874
C         -4.84614       16.34364        1.99307
N         -5.66208       15.95434        0.99660
N         -6.58701       16.92083        0.96700
N         -6.45182       17.96142        1.80051
C         -7.70322       16.84253        0.05517
C         -5.23154       19.59430        4.03809
C         -6.14143       19.73595        5.01345
C         -6.82832       20.95465        5.48670
C         -6.31424       22.20826        5.55038
C         -7.01444       23.29491        6.14546
N         -7.59556       24.17414        6.63264
C         -5.00213       22.52002        5.08858
N         -3.93693       22.77331        4.70265
C         -8.12568       20.49991        6.06654
C         -8.07504       19.10549        6.22515
C         -6.82553       18.56749        5.66708
O         -6.47529       17.40732        5.70887
C         -9.11917       18.35378        6.74137
C        -10.29105       19.02611        7.08568
C        -10.38830       20.41998        6.90060
C         -9.30466       21.15925        6.38980
Cl       -11.83974       21.29035        7.25803
Cl       -11.60307       18.08308        7.69575
H          5.13055       -2.47265        0.41391
H          5.26189       -1.35742        2.79438
H          2.36935        4.27420        2.91474
H          0.65893        5.01503       -1.63528
H         -2.20943       10.67927       -1.43927
H         -3.79995       14.63306       -0.08692
H         -7.64597       15.90746       -0.50885
H         -7.65214       17.69409       -0.62689
H         -8.62524       16.86725        0.64048
H         -4.84743       20.43834        3.47372
H         -9.02867       17.27550        6.83878
H         -9.43366       22.22583        6.23232
