96

C         -5.89858       -0.33938       -7.56012
C         -6.98283       -0.47468       -8.42583
F         -7.02465        0.26132       -9.54479
C         -8.01167       -1.35966       -8.13772
F         -9.04657       -1.49234       -8.97816
C         -7.98270       -2.11565       -6.97292
C         -6.91175       -1.98388       -6.07878
C         -5.83842       -1.09082       -6.37416
C         -4.74413       -0.97673       -5.48146
C         -4.72844       -1.71617       -4.30251
C         -5.80744       -2.57418       -4.04927
C         -6.88956       -2.72857       -4.89990
C         -5.60591       -3.32141       -2.80263
O         -6.44413       -4.00671       -2.25716
C         -4.19630       -3.02529       -2.38064
C         -3.75930       -1.84614       -3.16957
C         -2.78074       -0.96800       -2.83520
C         -2.01168       -1.09925       -1.64147
N         -1.39260       -1.22227       -0.66942
C         -2.48678        0.18649       -3.61363
N         -2.24403        1.12362       -4.25316
C         -3.47273       -3.83839       -1.59257
C         -3.98900       -5.02943       -1.01382
C         -4.57616       -5.21503        0.23871
C         -4.92805       -6.56647        0.44012
C         -4.56673       -7.34334       -0.63756
S         -3.85277       -6.52555       -1.89193
C         -4.92409       -8.67929       -0.37608
C         -5.52386       -8.74852        0.86163
C         -5.55874       -7.41247        1.45498
C         -6.05482       -7.05459        2.65462
C         -6.63900       -8.00155        3.54267
N         -7.11318       -8.77630        4.27205
C         -6.01559       -5.70539        3.10197
N         -5.97373       -4.60551        3.47105
C         -5.93146      -10.06142        1.16651
C         -5.60249      -10.93194        0.13114
S         -4.80056      -10.12460       -1.17797
C         -5.86517      -12.34011        0.08083
N         -6.01299      -13.00862       -1.11426
C         -6.26132      -14.31867       -0.83648
C         -6.51064      -15.55959       -1.46034
C         -6.66695      -16.46012       -0.41756
N         -6.52025      -15.79561        0.78155
C         -6.27347      -14.48030        0.50694
C         -6.02759      -13.23403        1.12851
C         -6.93687      -17.84892       -0.35691
C         -7.05159      -18.57471       -1.47866
C         -7.33218      -19.95882       -1.41626
N         -6.87365      -20.73718       -2.45570
C         -7.23714      -22.02888       -2.20294
C         -7.14356      -23.33833       -2.72515
C         -7.81435      -24.13739       -1.81007
N         -8.30661      -23.35098       -0.79387
C         -7.92812      -22.06230       -1.03893
C         -8.00393      -20.75725       -0.50408
C         -8.06679      -25.52721       -1.72938
C         -7.24185      -26.39379       -2.33133
C         -7.44100      -27.82619       -2.30485
C         -6.99272      -28.68338       -3.23365
C         -7.18527      -30.11035       -3.17249
C         -6.66845      -30.76602       -4.22018
C         -6.02197      -29.90602       -5.19884
S         -6.15719      -28.22432       -4.69797
C         -5.38545      -30.30938       -6.31531
C         -5.20668      -31.68643       -6.74072
C         -4.48140      -31.82318       -7.85890
C         -4.04390      -30.56719       -8.40949
S         -4.60851      -29.21783       -7.46812
C         -3.29117      -30.42361       -9.50266
H         -5.11331        0.36427       -7.82532
H         -8.80333       -2.80074       -6.77600
H         -3.92646       -0.31463       -5.75240
H         -7.68290       -3.42650       -4.64401
H         -2.41683       -3.67025       -1.41148
H         -4.73105       -4.39741        0.93196
H         -6.45172      -10.38962        2.05785
H         -5.95907      -12.62335       -2.04812
H         -6.56934      -15.76562       -2.51948
H         -6.57623      -16.17127        1.71913
H         -5.96770      -13.01895        2.18621
H         -7.03761      -18.32474        0.61546
H         -6.92529      -18.11731       -2.45576
H         -6.34025      -20.45191       -3.26715
H         -6.65825      -23.65741       -3.63753
H         -8.83241      -23.63536        0.02204
H         -8.48683      -20.43914        0.40870
H         -8.94585      -25.87841       -1.19565
H         -6.36549      -26.02999       -2.86482
H         -7.99669      -28.21155       -1.45245
H         -7.69637      -30.59381       -2.35145
H         -6.72804      -31.83940       -4.32203
H         -5.60563      -32.53030       -6.19752
H         -4.23723      -32.77506       -8.30853
H         -2.94410      -31.28043      -10.06902
H         -2.99693      -29.44140       -9.85979
