75

C          0.99987       -2.82714       -0.29266
C          0.29945       -2.52280       -1.45371
C         -0.15205       -1.18407       -1.42050
C          0.23077       -0.54186       -0.26080
S          1.09237       -1.48815        0.80344
C         -0.22040        0.79790       -0.30403
C         -0.89374        1.00418       -1.48829
C         -0.90170       -0.24700       -2.26149
C         -1.46955       -0.49134       -3.45871
C         -2.18482        0.51359       -4.16394
N         -2.77155        1.32990       -4.74454
C         -1.39252       -1.77057       -4.08232
N         -1.32907       -2.81373       -4.59180
C         -1.34350        2.34411       -1.59688
C         -0.98727        3.10871       -0.47585
S         -0.11090        2.13449        0.68190
C         -1.21115        4.51030       -0.21338
C         -0.25605        5.37600       -0.63619
C         -0.36699        6.83420       -0.52152
C         -1.43766        7.46529        0.01791
C         -2.50520        6.60049        0.54283
C         -3.62930        7.03624        1.15175
Si        -4.71223        5.61091        1.70178
C         -3.42822        4.43860        0.97961
C         -2.39155        5.11099        0.43618
C         -1.46678        8.90598       -0.02885
C         -2.01924        9.73758       -0.99249
O         -2.57968        9.19735       -2.10838
C         -3.61151        9.98446       -2.68871
C         -1.87101       11.12561       -0.67942
C         -1.23923       11.34826        0.53141
S         -0.78928        9.84721        1.25141
C         -0.96140       12.59873        1.18831
C         -1.91436       13.08741        2.01830
C         -1.77202       14.33676        2.77433
C         -0.67021       15.12660        2.72783
C          0.41194       14.67478        1.83418
C          1.58806       15.30785        1.63311
Si         2.65848       14.40161        0.37900
C          1.28885       13.12924        0.22408
C          0.25291       13.41468        1.03980
C         -0.67284       16.32353        3.53500
C         -1.12012       17.61370        3.21582
C         -0.96540       18.51320        4.30088
C         -0.39345       17.89134        5.38925
S         -0.06076       16.27500        5.17360
C         -0.24721       18.83600        6.43264
C         -0.73523       20.05506        6.00769
C         -1.22064       19.92332        4.63236
C         -1.77506       20.87850        3.86270
C         -1.95625       22.21353        4.32808
N         -2.10344       23.29941        4.70345
C         -2.21516       20.60220        2.53886
N         -2.58133       20.38238        1.46281
C         -0.62854       21.04436        7.01127
C         -0.04322       20.51402        8.15415
S          0.35387       18.83525        7.98483
H          1.46865       -3.76650       -0.02804
H          0.15576       -3.24858       -2.24567
H         -1.88160        2.77357       -2.43371
H          0.64778        5.01721       -1.12221
H          0.45750        7.40558       -0.94039
H         -3.90856        8.06374        1.33389
H         -3.56454        3.36985        1.03619
H         -3.94987        9.47865       -3.59842
H         -3.25762       10.97605       -2.98628
H         -4.46564       10.06387       -2.00754
H         -2.21002       11.94290       -1.30243
H         -2.84469       12.54534        2.17052
H         -2.61908       14.59347        3.40564
H          1.92822       16.22192        2.09532
H          1.37912       12.28262       -0.44093
H         -1.53225       17.85013        2.24201
H         -0.94079       22.08074        6.95214
H          0.17310       21.02310        9.08497
