108

C        -13.75342       -0.23857       -1.71145
C        -15.00188       -0.57149       -2.23072
F        -15.66855        0.33077       -2.96347
C        -15.54506       -1.82875       -2.01020
F        -16.73888       -2.14901       -2.52736
C        -14.85048       -2.77590       -1.26663
C        -13.58074       -2.47198       -0.75466
C        -13.01660       -1.18274       -0.97824
C        -11.71852       -0.88450       -0.50275
C        -10.97139       -1.85769        0.15613
C        -11.55948       -3.11332        0.34555
C        -12.84347       -3.43700       -0.06497
C        -10.60290       -4.06148        0.92440
O        -10.88096       -5.19080        1.27017
C         -9.28192       -3.34273        0.97737
C         -9.55631       -1.91030        0.65484
C         -8.74391       -0.83712        0.83134
C         -7.40030       -0.94798        1.29756
N         -6.29838       -1.03088        1.65067
C         -9.15659        0.50463        0.57468
N         -9.48789        1.59733        0.37102
C         -8.11469       -3.98416        1.16328
C         -7.98543       -5.39430        1.33125
C         -7.98658       -6.13787        2.51062
C         -7.64921       -7.48535        2.26087
C         -7.47644       -7.73732        0.91520
S         -7.66007       -6.40102       -0.05786
C         -7.14166       -9.10315        0.74465
C         -7.09533       -9.69566        1.98457
C         -7.37051       -8.70445        3.01740
C         -7.28869       -8.85774        4.35318
C         -6.84125      -10.06825        4.95080
N         -6.45799      -11.03339        5.46668
C         -7.58418       -7.79335        5.24201
N         -7.83164       -6.92391        5.97807
C         -6.83710      -11.07435        1.90203
C         -6.58653      -11.48760        0.59129
S         -6.81303      -10.13917       -0.51656
C         -6.21382      -12.76984        0.06042
C         -5.46580      -13.69046        0.69788
C         -5.02097      -14.93916        0.10626
C         -4.02768      -15.53798        0.78711
C         -3.61620      -14.80367        1.97019
S         -4.78697      -13.53472        2.29640
C         -2.47074      -14.92545        2.66744
C         -1.34608      -15.79395        2.38118
C         -0.20512      -15.39656        2.97191
C         -0.35590      -14.18974        3.76563
S         -2.05102      -13.86504        4.00883
C          0.66510      -13.43632        4.21141
C          0.52762      -12.18335        4.89486
C         -0.41800      -11.15861        4.75001
C         -0.24557      -10.14519        5.70916
C          0.87471      -10.36454        6.47421
S          1.71527      -11.74839        6.10542
C          0.93924       -9.36701        7.46685
C         -0.16600       -8.55509        7.36331
C         -0.91527       -8.92921        6.16566
C         -1.91539       -8.25231        5.57089
C         -2.34957       -6.99276        6.06792
N         -2.68506       -5.95232        6.45710
C         -2.52957       -8.70498        4.37125
N         -3.05214       -9.04059        3.39065
C         -0.29140       -7.70458        8.48525
C          0.75927       -7.90269        9.38908
S          1.98323       -8.94142        8.67638
C          0.94974       -7.30654       10.67397
C          1.54433       -7.89031       11.72729
C          2.06264       -6.97556       12.79950
O          1.71880       -5.84064       13.04374
C          3.14340       -7.72502       13.46441
C          3.95578       -7.24792       14.48356
C          4.87406       -8.13215       15.06193
C          4.99167       -9.46009       14.55366
C          5.86945      -10.35979       15.17420
C          6.60035       -9.96456       16.28864
C          6.49832       -8.66892       16.77440
C          5.65445       -7.74687       16.16179
F          7.19819       -8.29906       17.85530
F          7.39025      -10.85620       16.90194
C          4.19742       -9.88114       13.47122
C          3.23780       -9.02733       12.94749
C          2.12369       -9.22122       11.97903
C          1.60147      -10.42150       11.61718
C          0.27374      -10.54204       11.10497
N         -0.81761      -10.65365       10.73012
C          2.31690      -11.64491       11.72814
N          2.93164      -12.62839       11.77375
H        -13.36071        0.75553       -1.91094
H        -15.30054       -3.75406       -1.11905
H        -11.31789        0.10062       -0.71935
H        -13.22758       -4.44006        0.10378
H         -7.16474       -3.46468        1.14650
H         -8.17671       -5.69020        3.47882
H         -6.80707      -11.74899        2.74621
H         -6.50981      -12.97331       -0.96674
H         -5.43371      -15.32491       -0.81611
H         -3.55605      -16.45827        0.47330
H         -1.41028      -16.64215        1.71512
H          0.74795      -15.88918        2.83716
H          1.68079      -13.78221        4.03172
H         -1.21907      -11.19678        4.02280
H         -1.12578       -7.04330        8.69403
H          0.63305       -6.26547       10.76127
H          3.83564       -6.22824       14.84077
H          5.96864      -11.38539       14.82670
H          5.59388       -6.74364       16.57505
H          4.32927      -10.89241       13.10193
