99

C        -12.44020        1.23762        2.01687
C        -13.78072        1.15044        2.38861
F        -14.54268        2.25159        2.34539
C        -14.32916       -0.05819        2.79395
F        -15.62339       -0.13594        3.13163
C        -13.54286       -1.20042        2.85455
C        -12.18937       -1.13127        2.49957
C        -11.62063        0.10033        2.05304
C        -10.26377        0.16102        1.64777
C         -9.47754       -0.98208        1.70624
C        -10.07060       -2.15694        2.18215
C        -11.39354       -2.26873        2.57398
C         -9.11829       -3.26283        2.15913
O         -9.25149       -4.28120        2.80414
C         -7.98290       -2.79243        1.30061
C         -8.06859       -1.30717        1.31805
C         -7.04469       -0.42834        1.19020
C         -5.70151       -0.85431        0.95094
N         -4.61399       -1.20839        0.74067
C         -7.21422        0.97281        1.36064
N         -7.36325        2.11494        1.50360
C         -7.21275       -3.58517        0.53546
C         -7.34388       -4.99880        0.43933
N         -6.20379       -5.70846        0.12674
C         -6.51889       -7.03500        0.10906
C         -5.93953       -8.30529       -0.07782
C         -6.98539       -9.20193        0.07705
N         -8.14928       -8.50796        0.32642
C         -7.84079       -7.17409        0.35554
C         -8.40285       -5.89291        0.55146
C         -7.04711      -10.61237        0.02552
C         -5.97307      -11.33938        0.36862
C         -5.95452      -12.77518        0.31046
C         -5.72232      -13.54415        1.38807
C         -5.72365      -15.00671        1.24097
C         -5.56052      -15.83422        2.30775
C         -5.55857      -17.25776        2.16669
N         -5.55616      -18.40431        2.03761
C         -5.39146      -15.33903        3.63019
N         -5.24813      -14.91684        4.70086
C         -5.88503      -15.52227       -0.12807
C         -6.09865      -14.66198       -1.13870
O         -6.18393      -13.29001       -0.95614
C         -6.22163      -15.10459       -2.47968
N         -6.98932      -14.34785       -3.34395
C         -6.94857      -14.93585       -4.57804
C         -7.42662      -14.80328       -5.90617
C         -6.88767      -15.88493       -6.58400
N         -6.12907      -16.64036       -5.72154
C         -6.17705      -16.04661       -4.49305
C         -5.70224      -16.18981       -3.16951
C         -7.01606      -16.36733       -7.90394
C         -6.23308      -15.99449       -8.92771
C         -5.14914      -15.03680       -8.90648
C         -4.35139      -14.63053       -9.90784
C         -3.53073      -13.39857       -9.62033
O         -3.26993      -12.89703       -8.54645
C         -3.13979      -12.85702      -10.92741
C         -2.48510      -11.65025      -11.14210
C         -2.23401      -11.25578      -12.46166
C         -2.66866      -12.08700      -13.53415
C         -2.41323      -11.68996      -14.85576
C         -1.74540      -10.49728      -15.11332
C         -1.32855       -9.68492      -14.06923
C         -1.56816      -10.05304      -12.74833
F         -0.68898       -8.53554      -14.32471
F         -1.50873      -10.14067      -16.38307
C         -3.34600      -13.29581      -13.26747
C         -3.56766      -13.70448      -11.95672
C         -4.19182      -14.92722      -11.34716
C         -4.34297      -16.11105      -11.99416
C         -4.69341      -17.33232      -11.35144
N         -4.98386      -18.35560      -10.88683
C         -4.08234      -16.27593      -13.38678
N         -3.87886      -16.41615      -14.52042
H        -12.05147        2.20245        1.70317
H        -13.99940       -2.13321        3.17636
H         -9.87356        1.10440        1.27656
H        -11.77943       -3.22936        2.90446
H         -6.46629       -3.14462       -0.12093
H         -5.26480       -5.36773       -0.04249
H         -4.90683       -8.53723       -0.29523
H         -9.07811       -8.87446        0.49732
H         -9.43687       -5.66109        0.76809
H         -7.96677      -11.09957       -0.28686
H         -5.05729      -10.86746        0.71738
H         -5.55239      -13.07528        2.35390
H         -5.83396      -16.58835       -0.32633
H         -7.50041      -13.49986       -3.13240
H         -8.07803      -14.03963       -6.30870
H         -5.61792      -17.49018       -5.92095
H         -5.05561      -16.96323       -2.77977
H         -7.79452      -17.10623       -8.08541
H         -6.48090      -16.45656       -9.87384
H         -5.02853      -14.53514       -7.94087
H         -2.18911      -11.03623      -10.29461
H         -2.72206      -12.30164      -15.70002
H         -1.22791       -9.39159      -11.95590
H         -3.68736      -13.87959      -14.11574
