108

C        -10.09052        5.17341        5.80037
C         -9.15157        4.18086        6.05341
C         -7.92667        4.49147        5.42875
C         -7.99706        5.68001        4.73537
S         -9.46900        6.44955        4.80845
C         -6.74911        5.92868        4.12965
C         -5.88398        4.90909        4.44685
C         -6.58607        3.92153        5.28154
C         -6.12014        2.75355        5.76589
C         -4.80645        2.31075        5.50657
N         -3.72215        1.96928        5.27358
C         -6.94260        1.89422        6.55376
N         -7.61382        1.18347        7.19874
C         -4.60497        5.13128        3.88200
C         -4.58070        6.28785        3.09329
S         -6.12364        7.10630        3.14702
C         -3.49774        6.80036        2.26394
S         -3.31957        8.50919        2.01153
C         -2.07887        8.34056        0.82346
C         -1.69151        7.01267        0.76604
C         -2.52011        6.12476        1.55213
C         -2.36895        4.72524        1.51492
C         -1.36748        4.26454        0.61498
S         -1.23642        2.46387        0.44745
C          0.01541        2.11636        1.73503
C          0.32377        0.62726        1.79850
C         -0.55645        5.15850       -0.16754
S          0.64508        4.59092       -1.39131
C         -0.43030        4.56408       -2.87213
C          0.37164        4.11663       -4.07889
C         -0.65055        6.56311       -0.05835
C         -1.65777        9.50751        0.10567
C         -1.21625        9.42347       -1.16506
C         -0.71321       10.53979       -1.96266
C         -0.81295       10.52792       -3.35402
N         -0.30025       11.50254       -4.14894
C          0.35078       12.50240       -3.50687
C          0.43616       12.51571       -2.11348
N         -0.08937       11.54656       -1.31692
C          0.99532       13.50411       -4.36752
S          2.59126       14.02328       -3.95222
C          2.72131       15.11229       -5.27909
C          1.58968       15.02984       -6.06757
C          0.59134       14.12435       -5.53708
C         -0.65560       13.91150       -6.14534
C         -0.85459       14.68587       -7.32055
S         -2.47483       14.48446       -8.10143
C         -2.05557       13.11216       -9.22103
C         -3.28429       12.66859       -9.99353
C          0.14508       15.58723       -7.84874
S         -0.14154       16.59012       -9.33022
C         -0.83556       18.06965       -8.51972
C         -1.18256       19.12847       -9.55146
C          1.42040       15.76561       -7.24971
C          3.92390       15.86527       -5.40656
C          4.06656       17.06395       -4.82393
C          5.27163       17.82273       -4.94586
C          6.44189       17.52142       -5.65851
C          7.41575       18.53033       -5.53503
C          6.97150       19.56002       -4.73868
S          5.43409       19.36473       -4.13603
C          7.98977       20.53531       -4.65698
C          9.07281       20.11750       -5.40390
C          8.77122       18.81850       -6.00262
C          9.56061       18.06274       -6.80018
C         10.86357       18.47906       -7.17563
N         11.93161       18.82268       -7.48185
C          9.11892       16.80828       -7.30194
N          8.74865       15.78092       -7.70754
C         10.12491       21.05603       -5.36656
C          9.77405       22.14611       -4.57957
S          8.18349       22.00666       -3.90771
H        -11.11508        5.21878        6.14442
H         -9.37886        3.30904        6.65360
H         -3.74216        4.49158        4.00843
H         -2.97789        4.02696        2.07018
H         -0.37576        2.43329        2.70566
H          0.93210        2.67809        1.52953
H         -0.58667        0.04425        1.97365
H          1.00727        0.41478        2.62898
H          0.80742        0.27004        0.88273
H         -0.86742        5.55426       -3.04673
H         -1.23845        3.84278       -2.72857
H          1.22903        4.77105       -4.26710
H         -0.25726        4.11681       -4.97602
H          0.72061        3.08938       -3.93176
H          0.01512        7.21369       -0.60907
H         -1.74174       10.47955        0.58604
H         -1.19651        8.47400       -1.68628
H         -1.31557        9.72389       -3.88109
H          0.94172       13.31329       -1.57990
H         -1.40913       13.23001       -5.76800
H         -1.66955       12.27208       -8.63537
H         -1.27526       13.43360       -9.91763
H         -4.08342       12.33350       -9.32340
H         -3.02613       11.82721      -10.64526
H         -3.67310       13.47206      -10.62802
H         -0.10505       18.47482       -7.81158
H         -1.73520       17.79216       -7.96236
H         -0.29044       19.48494      -10.07761
H         -1.63961       19.99204       -9.05602
H         -1.89929       18.75475      -10.29029
H          2.17170       16.41857       -7.67562
H          4.72912       15.39399       -5.96779
H          3.25395       17.48585       -4.22623
H          6.53991       16.60742       -6.22174
H         11.08527       20.98472       -5.86220
H         10.36706       23.02402       -4.36009
