89

C         -9.44670       11.93995       -1.35100
C         -9.70442       11.29045       -0.16359
C         -8.57287       10.54814        0.19823
C         -7.52385       10.67466       -0.68997
S         -7.84698       11.68276       -1.96277
C         -6.42021        9.91164       -0.24542
C         -6.76198        9.35205        0.94764
C         -8.13293        9.73203        1.27171
C         -8.81026        9.50023        2.44568
C         -7.86709        9.15447        3.44169
N         -6.98534        8.92766        4.15294
C        -10.13247        9.85625        2.75876
N        -11.26297       10.15184        3.06322
C         -5.66202        8.66325        1.49853
C         -4.56947        8.53591        0.64933
S         -4.88526        9.53458       -0.76776
C         -3.31576        7.76985        0.85970
S         -2.06780        7.87861       -0.34214
C         -1.00753        6.86669        0.50269
C         -1.52724        6.38915        1.68168
C         -0.77328        5.46328        2.59497
C         -2.86734        6.91021        1.88887
C         -3.56023        6.55445        3.09358
C         -4.85130        6.24254        3.20976
C         -5.49745        6.12018        4.47613
C         -5.26050        5.20448        5.38999
C         -6.15507        5.01285        6.47544
S         -5.46503        4.03640        7.71902
C         -6.92760        3.91299        8.60315
C         -7.78118        4.94685        8.22323
C         -7.47426        5.35812        6.82157
C         -8.46892        6.05530        6.06229
C         -8.72826        6.55839        4.68373
F         -7.87301        6.34194        3.66675
F         -9.93932        6.20179        4.15858
F         -8.90961        7.89448        4.86013
C         -9.56125        6.54503        6.84159
C         -9.79660        6.26612        8.16462
C         -8.95599        5.43072        8.89211
O         -9.49964        5.17472       10.12644
C         -8.60089        5.28857       11.20542
C         -6.93835        2.86428        9.57628
C         -8.09923        2.37143       10.03568
C         -8.26204        1.66540       11.30558
C         -7.53961        0.58171       11.64679
C         -7.84652       -0.18612       12.84740
C         -9.04236       -0.10679       13.48161
C        -10.03264        0.94924       13.02506
C         -9.25966        2.14050       12.38612
N        -10.20906        3.18055       11.97562
C        -11.30267        2.73264       11.47099
C        -11.57806        1.26357       11.33758
N        -10.99700        0.35686       12.06038
F        -12.44911        0.88004       10.39803
F        -12.21448        3.61631       11.05054
C         -9.39408       -1.00217       14.61094
C         -8.93841       -2.34425       14.70579
C         -9.29224       -3.24085       15.75129
C        -10.15303       -2.89044       16.80120
C        -10.63021       -1.57117       16.74406
C        -10.25802       -0.63095       15.68186
N        -10.86235        0.53333       15.97046
O        -11.61037        0.32642       17.10963
N        -11.46324       -0.95720       17.59217
H        -10.12211       12.57695       -1.91029
H        -10.64850       11.35562        0.37986
H         -5.62849        8.25907        2.48246
H         -0.03136        6.65503        0.09413
H          0.20010        5.19937        2.16640
H         -1.31801        4.52713        2.76251
H         -0.58478        5.93602        3.56502
H         -2.96677        6.51507        4.00658
H         -5.51250        6.22880        2.34274
H         -6.27290        6.83456        4.67268
H         -4.37467        4.60956        5.29039
H        -10.28554        7.21842        6.36194
H        -10.69882        6.68993        8.59960
H         -9.18898        5.33517       12.12607
H         -7.95279        6.16017       11.16126
H         -8.00126        4.39459       11.26125
H         -5.98134        2.52060        9.96689
H         -9.00557        2.65728        9.50363
H         -6.73990        0.21439       11.01696
H         -7.08044       -0.89445       13.14692
H        -10.60609        1.36357       13.85523
H         -8.65410        2.59913       13.18743
H         -8.29016       -2.73914       13.92210
H         -8.88399       -4.25168       15.72921
H        -10.43119       -3.57474       17.59208
