115

C         -5.99898        1.38031        5.19025
C         -7.24697        1.55327        5.78592
F         -7.63713        2.78277        6.14941
C         -8.08458        0.46790        5.99560
F         -9.30144        0.64506        6.52798
C         -7.67123       -0.81567        5.65884
C         -6.40448       -1.02115        5.09462
C         -5.56287        0.09822        4.81316
C         -4.32517       -0.09432        4.15438
C         -3.91816       -1.37941        3.81542
C         -4.74353       -2.45764        4.16770
C         -5.96941       -2.31402        4.79333
C         -4.17516       -3.72251        3.67951
O         -4.46479       -4.82828        4.08063
C         -3.14442       -3.30589        2.67839
C         -2.75258       -1.93382        3.06749
C         -1.52148       -1.38440        2.96498
C         -0.41628       -2.11132        2.42614
N          0.48803       -2.69353        2.00343
C         -1.21694       -0.09149        3.49115
N         -0.98923        0.96615        3.92378
C         -2.92464       -3.94804        1.51804
C         -3.57413       -5.17102        1.16659
S         -2.79660       -6.62030        1.60276
C         -3.98899       -7.62214        0.88243
C         -4.92909       -6.85089        0.18748
C         -4.76033       -5.42236        0.47872
C         -5.77337       -4.40729       -0.01721
N         -6.04699       -3.41169        1.02087
C         -7.11732       -5.06452       -0.38779
C         -6.89069       -6.22105       -1.34774
C         -6.09455       -7.35330       -0.66668
N         -5.60169       -8.23005       -1.72911
C         -3.86380       -9.04477        0.99078
C         -3.27842       -9.67872        2.03583
C         -3.22327      -11.11079        2.12776
S         -4.55665      -11.95137        1.41715
C         -3.93710      -13.51659        1.65807
C         -2.72326      -13.43065        2.32426
C         -2.34906      -12.03155        2.71233
C         -1.18907      -11.76405        3.50904
C         -0.57329      -10.54406        4.16664
F         -1.09817       -9.33188        3.88600
F         -0.61376      -10.65558        5.53073
F          0.76010      -10.44222        3.87332
C         -0.46623      -12.96847        3.80240
C         -0.80015      -14.27783        3.38322
C         -1.94943      -14.57429        2.64173
O         -2.24840      -15.82594        2.17496
C         -1.84779      -16.90614        3.01394
C         -4.74691      -14.63365        1.26319
C         -5.59874      -14.59229        0.22261
C         -6.45002      -15.68583       -0.09187
C         -6.25024      -17.05660        0.09619
C         -7.34670      -17.80943       -0.37586
C         -8.32987      -16.98988       -0.87834
S         -7.99192      -15.36679       -0.83789
C         -9.39651      -17.78838       -1.32921
C         -9.08991      -19.11145       -1.12348
C         -7.76868      -19.19751       -0.49883
C         -7.09470      -20.31313       -0.12696
C         -5.80433      -20.22525        0.46552
N         -4.75108      -20.14893        0.95408
C         -7.63487      -21.61060       -0.30026
N         -8.07929      -22.68132       -0.43316
C        -10.12569      -19.95430       -1.58185
C        -11.20582      -19.22578       -2.11266
S        -10.86433      -17.50179       -2.02956
C        -12.44500      -19.70116       -2.68763
C        -13.55911      -18.94402       -2.59082
C        -14.82589      -19.36072       -3.12244
C        -14.99233      -20.61458       -3.86258
C        -14.01775      -21.49819       -4.06782
S        -12.39530      -21.28161       -3.47685
C        -16.34367      -20.66751       -4.25769
C        -16.99987      -19.54796       -3.80454
C        -18.36091      -19.52480       -4.14338
C        -18.68086      -20.66024       -4.87507
S        -17.32246      -21.71755       -5.10968
C        -16.03992      -18.73761       -3.09337
C        -16.33278      -17.48339       -2.44463
C        -16.83780      -16.41541       -3.07422
H         -5.37858        2.25897        5.03212
H         -8.35239       -1.64380        5.83553
H         -3.72961        0.77643        3.89422
H         -6.57268       -3.19237        5.00521
H         -2.27587       -3.52622        0.75659
H         -5.35636       -3.90756       -0.89993
H         -6.28214       -3.91709        1.87714
H         -6.89669       -2.90655        0.76914
H         -7.78166       -4.32656       -0.85474
H         -7.63587       -5.44011        0.50556
H         -6.36980       -5.83799       -2.23724
H         -7.85717       -6.60521       -1.70090
H         -6.77852       -7.91812       -0.02082
H         -5.02238       -7.68432       -2.36697
H         -6.39095       -8.55503       -2.28767
H         -4.29417       -9.60891        0.16695
H         -2.86578       -9.10274        2.85170
H          0.44726      -12.87570        4.40122
H         -0.09989      -15.06520        3.65469
H         -2.20353      -16.75972        4.03927
H         -0.76287      -17.05446        2.99372
H         -2.30849      -17.81839        2.62337
H         -4.68335      -15.52220        1.88360
H         -5.69309      -13.70178       -0.39809
H         -5.34501      -17.44450        0.53940
H        -10.12384      -21.03760       -1.54345
H        -13.55275      -17.97129       -2.11038
H        -14.21376      -22.41329       -4.61716
H        -19.07034      -18.74869       -3.88759
H        -19.64172      -20.93429       -5.28796
H        -16.10822      -17.42337       -1.38174
H        -17.05179      -16.42636       -4.13880
H        -17.03134      -15.49411       -2.53390
