73

C          6.67144        1.86949        5.76117
C          6.00391        2.73168        6.62300
C          4.99289        3.43335        5.93328
C          4.93769        3.06608        4.60570
S          6.05607        1.92614        4.14377
C          3.90705        3.79153        3.97497
C          3.31367        4.62271        4.89400
C          3.96391        4.44103        6.19584
C          3.67961        5.04921        7.36364
C          2.63189        6.00196        7.47019
N          1.76481        6.77320        7.54693
C          4.40432        4.75872        8.55570
N          4.99121        4.52184        9.52423
C          2.28208        5.38767        4.30481
C          2.12661        5.10626        2.93516
S          3.26617        3.85608        2.45118
C          1.19747        5.66631        1.97483
C         -0.01325        6.06844        2.41700
C         -0.99975        6.64650        1.54050
C         -0.76086        6.85146        0.10777
C          0.36400        6.51787       -0.51833
S          1.72835        5.81689        0.29356
C         -1.91937        7.46043       -0.41420
C         -2.83418        7.64272        0.59335
C         -4.01830        8.26367        0.16627
C         -3.94199        8.53098       -1.19436
S         -2.44079        8.01457       -1.90003
C         -2.25431        7.11379        1.80455
C         -2.92307        7.13626        3.07764
C         -3.19741        6.03558        3.79647
C         -3.90353        6.08480        5.07528
C         -3.83314        7.16632        5.96694
C         -4.52299        7.20277        7.19383
F         -4.34196        8.31095        7.93138
C         -5.35553        6.17447        7.69296
C         -5.44960        5.04015        6.82521
C         -4.69947        4.98458        5.50247
N         -4.89096        3.82723        4.84507
S         -5.92386        2.91186        5.75805
N         -6.18035        3.93063        7.03486
C         -6.04356        6.24498        8.98738
C         -6.49965        7.42858        9.54877
N         -7.12879        7.53142       10.74172
C         -7.29874        6.38997       11.42214
N         -6.87644        5.19308       11.01037
C         -6.28089        5.14711        9.79828
C         -7.98279        6.43581       12.71678
S         -8.53647        7.94570       13.33197
C         -9.15329        7.26254       14.78957
C         -8.95352        5.89151       14.79154
C         -8.29027        5.42242       13.61010
N         -7.98639        4.03417       13.39355
O         -8.56837        3.47041       12.46019
O         -7.25529        3.50325       14.23619
C         -9.39620        5.02552       15.84246
N         -9.76223        4.33391       16.70088
C         -9.77821        8.14735       15.71918
C         -9.79155        7.92638       17.03952
H          7.49174        1.20334        5.99221
H          6.26316        2.81563        7.67132
H          1.67416        6.12449        4.81530
H         -0.29482        5.96624        3.45989
H          0.47083        6.69115       -1.58431
H         -4.87487        8.50804        0.78092
H         -4.68606        9.00241       -1.82199
H         -3.23781        8.12453        3.40460
H         -2.93011        5.04829        3.42131
H         -3.21387        8.02989        5.72787
H         -6.38005        8.38462        9.04315
H         -5.98225        4.14210        9.50989
H        -10.25118        9.05318       15.34139
H         -9.31447        7.07820       17.51927
H        -10.28972        8.62449       17.70670
