89

C        -11.35918        5.16851       -0.94147
C        -10.90308        5.72320       -2.13224
C         -9.50721        5.91830       -2.08461
C         -8.98710        5.50203       -0.87914
S        -10.09026        4.88955        0.20159
C         -7.59967        5.72586       -0.88510
C         -7.23219        6.27600       -2.08713
C         -8.42302        6.43994       -2.92140
C         -8.50990        6.96813       -4.15549
C         -7.36097        7.45200       -4.84434
N         -6.42526        7.84425       -5.40630
C         -9.75111        7.08344       -4.83366
N        -10.77159        7.17737       -5.38001
C         -5.84238        6.51567       -2.13828
C         -5.19079        6.15396       -0.94420
S         -6.37400        5.50380        0.19268
C         -3.78756        6.25099       -0.58605
C         -3.37017        5.82568        0.62568
C         -1.99788        5.85884        1.03428
C         -0.92221        6.26319        0.12883
C         -1.11634        6.73954       -1.09850
S         -2.69572        6.94531       -1.79633
C          0.28167        6.06575        0.82945
C          0.00822        5.59019        2.08997
C          1.16122        5.34453        2.85014
C          2.28963        5.66723        2.10740
S          1.90966        6.25482        0.51837
C         -1.42688        5.48648        2.21608
C         -2.10077        5.02662        3.40899
C         -2.99429        5.75827        4.10270
C         -3.63821        5.36652        5.33170
C         -3.06759        4.51015        6.25348
F         -1.88945        3.95747        6.10618
S         -4.01451        4.24936        7.63071
C         -5.20966        5.29240        7.04512
F         -6.31121        5.52848        7.71302
C         -4.91464        5.85200        5.81727
C         -5.78695        6.77131        5.13234
C         -6.63464        7.63011        5.73005
C         -7.48843        8.57613        5.03165
C         -6.93766        9.50031        4.22305
C         -7.73359       10.47087        3.52595
C         -9.19637       10.51061        3.63002
C         -9.91561        9.69342        4.39758
S         -9.20518        8.45133        5.39290
C         -9.62842       11.54422        2.77440
C         -8.54018       12.12654        2.16869
C         -8.88342       13.15264        1.27503
C        -10.26359       13.30407        1.24359
S        -11.08779       12.21028        2.31227
C         -7.36010       11.45935        2.66327
C         -6.01359       11.79274        2.27010
C         -5.07630       12.18531        3.14798
C         -3.75111       12.50706        2.74328
C         -3.27439       12.97510        1.51708
C         -1.88888       13.22185        1.56301
C         -1.35848       12.91777        2.79594
S         -2.45603       12.35175        3.90431
C          0.01964       13.21805        2.78495
C          0.35641       13.71725        1.54351
C         -0.83463       13.73880        0.69335
C         -0.94097       14.14566       -0.58656
C          0.18283       14.63163       -1.30743
N          1.10273       15.02954       -1.89206
C         -2.18070       14.11326       -1.28331
N         -3.19730       14.08585       -1.84316
C          1.72058       14.06862        1.47636
C          2.35004       13.80405        2.68665
S          1.27489       13.14216        3.87294
H        -12.37454        4.91056       -0.67328
H        -11.56902        5.96069       -2.95178
H         -5.31173        6.93705       -2.98439
H         -4.04361        5.39038        1.35390
H         -0.27171        7.03773       -1.71135
H          1.19384        4.95937        3.86100
H          3.32601        5.59091        2.40515
H         -1.80524        4.03580        3.74729
H         -3.24493        6.74918        3.72497
H         -5.74439        6.76353        4.04373
H         -6.71675        7.66782        6.81490
H         -5.86244        9.53080        4.07771
H        -10.99732        9.77895        4.42760
H         -8.19910       13.74494        0.68136
H        -10.84238       13.99819        0.64961
H         -5.80428       11.70458        1.20723
H         -5.32033       12.26497        4.20640
H         -3.92701       13.15325        0.67179
H          2.24735       14.49244        0.63037
H          3.38825       13.96829        2.94320
