134

C         -3.49841        3.29482       -5.63870
C         -2.25158        3.83034       -5.94104
C         -1.92555        4.86645       -5.03858
C         -2.92410        5.05393       -4.10790
S         -4.23957        4.05045       -4.26895
C         -2.54300        6.08979       -3.23334
C         -1.30481        6.56292       -3.59979
C         -0.84188        5.81978       -4.77972
C          0.30140        5.97506       -5.47692
C          1.26075        6.96149       -5.11953
N          2.03781        7.77067       -4.82404
C          0.60398        5.16737       -6.60891
N          0.84539        4.50474       -7.52975
C         -0.88623        7.60559       -2.73504
C         -1.82467        7.83641       -1.71668
S         -3.23334        6.86586       -1.94660
C         -1.69634        8.91836       -0.64820
C         -1.00358       10.06367       -0.99589
S         -1.07698       11.26885        0.18793
C         -2.03411       10.29753        1.21381
C         -2.29550        9.02879        0.69962
C         -3.03479        8.14524        1.57311
C         -2.97800        6.63863        1.33534
C         -3.29477        5.59444        2.40274
C         -3.78855        8.71882        2.67949
C         -5.13000        8.09302        3.04979
C         -6.30572        8.76435        2.34821
C         -3.37089        9.97141        3.25595
C         -3.68273       10.71203        4.48714
C         -3.06216       11.94816        4.51923
S         -2.10553       12.24189        3.15485
C         -2.49698       10.72541        2.47474
C         -4.48959       10.35709        5.63119
C         -4.60343        9.14884        6.21409
C         -5.42812        8.79818        7.35322
C         -6.45338        9.61612        7.78777
S         -7.25313        9.01303        9.16464
C         -6.28073        7.61821        9.19940
C         -5.39611        7.55011        8.12426
C         -4.61963        6.35290        8.04333
C         -3.27874        6.36259        7.34341
C         -3.23311        5.74644        5.96828
C         -4.97913        5.21318        8.85821
C         -5.36444        3.88769        8.18448
C         -4.37747        2.76004        8.09133
C         -5.54324        5.47539       10.13886
C         -5.57782        4.72474       11.39195
C         -6.48792        5.28769       12.27112
S         -7.19217        6.72823       11.66592
C         -6.28594        6.64685       10.22638
C         -4.76089        3.56854       11.75905
C         -3.56644        3.25375       11.19097
C         -2.67054        2.13183       11.43072
C         -2.48527        1.72562       12.73896
S         -1.48683        0.36820       12.88358
C         -1.29794        0.22427       11.19378
C         -1.87053        1.28049       10.46906
C         -1.55828        1.22057        9.04733
C         -1.31836        2.35938        8.05115
C         -1.24096        3.81813        8.40128
C         -1.15398       -0.04819        8.42207
C         -1.47646       -0.32059        6.94468
C         -0.51486        0.19599        5.88048
C         -0.47492       -1.00108        9.21678
C          0.36912       -2.13970        8.89531
C          0.82548       -2.78653       10.02220
S          0.26774       -2.05244       11.45248
C         -0.56433       -0.82897       10.59233
C          0.81684       -2.55531        7.59188
C          1.94996       -2.09535        7.02932
C          2.37640       -2.46007        5.71446
C          2.19147       -3.63605        4.98881
C          2.78536       -3.55136        3.70440
C          3.38747       -2.33172        3.49403
S          3.29660       -1.29013        4.78384
C          3.93538       -2.30320        2.18615
C          3.70535       -3.51655        1.58838
C          2.96974       -4.38624        2.51059
C          2.56264       -5.64623        2.30090
C          2.81370       -6.33051        1.07918
N          3.01367       -6.90108        0.07751
C          1.84927       -6.37039        3.29325
N          1.25471       -6.94963        4.10785
C          4.21570       -3.56994        0.28146
C          4.83034       -2.36810       -0.05109
S          4.76464       -1.21495        1.24284
H         -4.02000        2.49565       -6.14874
H         -1.65421        3.46694       -6.76793
H          0.04727        8.15005       -2.81464
H         -0.51058       10.29288       -1.93077
H         -1.94537        6.42257        1.02686
H         -3.64881        6.41769        0.51393
H         -3.54608        6.01322        3.36738
H         -2.45469        4.90996        2.55767
H         -4.13593        4.97422        2.06497
H         -5.29675        8.13621        4.11905
H         -5.19406        7.03635        2.80375
H         -6.09558        9.78782        2.02610
H         -7.17409        8.78356        3.01614
H         -6.59298        8.18131        1.46601
H         -3.10685       12.70084        5.29612
H         -4.99505       11.19651        6.10592
H         -4.01483        8.35753        5.76966
H         -6.78236       10.55722        7.37074
H         -2.53612        5.92926        8.00548
H         -2.91964        7.39528        7.27637
H         -3.39684        4.66874        5.97991
H         -2.25223        5.93073        5.51329
H         -3.99987        6.19303        5.33493
H         -5.72905        4.09731        7.17424
H         -6.23249        3.48685        8.72509
H         -4.84138        1.77480        8.20051
H         -3.64069        2.81978        8.86525
H         -3.87943        2.78478        7.12452
H         -6.77003        4.96451       13.26436
H         -5.14371        2.95855       12.57860
H         -3.21313        3.96194       10.46462
H         -2.88926        2.16891       13.63996
H         -1.98315        2.23115        7.19463
H         -0.30697        2.17223        7.66491
H         -2.12694        4.18363        8.89550
H         -1.13934        4.37119        7.45870
H         -0.37772        4.05687        9.02061
H         -2.48701        0.05279        6.72929
H         -1.57333       -1.40638        6.81392
H         -0.58132        1.27665        5.73888
H         -0.75577       -0.25181        4.90976
H          0.52218       -0.03211        6.11894
H          1.48409       -3.64248       10.07723
H          0.18241       -3.26169        7.06430
H          2.53723       -1.34918        7.55994
H          1.66545       -4.48884        5.38947
H          4.16965       -4.40255       -0.42201
H          5.31534       -2.10439       -0.98185
