94

C          1.46567       -0.15798       -1.31596
C          2.71643       -0.50377       -1.82152
F          3.51385        0.45553       -2.30290
C          3.13484       -1.82776       -1.83176
F          4.33825       -2.15293       -2.32421
C          2.31530       -2.83031       -1.33452
C          1.05358       -2.50190       -0.81863
C          0.61145       -1.14548       -0.80805
C         -0.66621       -0.80841       -0.30319
C         -1.48980       -1.80475        0.20465
C         -1.02278       -3.11786        0.15255
C          0.21688       -3.49928       -0.32842
C         -2.03852       -4.03433        0.63985
O         -1.78449       -5.18400        0.93446
C         -3.31412       -3.23714        0.79327
C         -2.87364       -1.81379        0.77056
C         -3.49282       -0.75174        1.34367
C         -2.83053        0.49914        1.52534
N         -2.26766        1.50316        1.69282
C         -4.80002       -0.81722        1.88765
N         -5.88335       -0.85418        2.31082
C         -4.55879       -3.75884        0.81866
C         -4.88425       -5.14514        0.77028
N         -4.04620       -6.07360        1.33654
C         -4.47257       -7.33844        1.08196
C         -5.69491       -7.24486        0.46227
C         -5.97314       -5.85813        0.29454
C         -3.72963       -8.48080        1.46132
C         -3.15149       -9.57452        1.87312
C         -2.47751      -10.84954        2.35319
C         -1.15451      -10.87210        2.58517
C         -0.49507      -12.08904        2.98776
C         -1.20441      -13.36907        3.12909
C         -2.51450      -13.52761        2.95360
S         -3.57447      -12.22153        2.52242
C         -0.24017      -14.32650        3.50249
C          0.99043      -13.72368        3.60077
C          2.01073      -14.60415        3.99218
C          1.48817      -15.87799        4.17310
S         -0.21980      -15.95613        3.86558
C          0.81563      -12.32758        3.27968
C          1.84699      -11.32753        3.32421
C          2.94820      -11.33521        2.55926
C          3.89384      -10.28583        2.66658
N          5.00286      -10.31726        1.85325
C          5.78423       -9.21647        2.08405
C          5.19066       -8.47490        3.07953
C          3.99971       -9.14706        3.44494
C          7.00506       -8.96112        1.40401
C          8.05559       -8.79809        0.84061
C          9.27510       -8.63471        0.14588
C         10.41717       -8.17845        0.66916
C         11.46401       -7.77565       -0.32198
O         11.53564       -8.06978       -1.49687
C         12.37868       -6.88762        0.40220
C         13.46166       -6.22925       -0.16083
C         14.26360       -5.44842        0.67385
C         13.93633       -5.33309        2.05686
C         14.77156       -4.57466        2.89111
C         15.89993       -3.94676        2.37129
C         16.20599       -4.04994        1.02213
C         15.39549       -4.79138        0.16964
F         17.29321       -3.44231        0.52841
F         16.69420       -3.24475        3.19076
C         12.80033       -5.99213        2.57831
C         12.01634       -6.79222        1.75503
C         10.85161       -7.70766        1.99761
C         10.44842       -8.15930        3.21116
C          9.65331       -9.33251        3.37518
N          9.07439      -10.32002        3.55896
C         10.87384       -7.57558        4.43991
N         11.20319       -7.08404        5.43684
H          1.17421        0.88893       -1.32529
H          2.66731       -3.85872       -1.35976
H         -0.98576        0.22624       -0.34263
H          0.49922       -4.54912       -0.33296
H         -5.42803       -3.10595        0.81585
H         -3.14000       -5.87345        1.74159
H         -6.31224       -8.08052        0.15729
H         -6.85941       -5.44315       -0.16715
H         -0.55394       -9.97977        2.44170
H         -2.97582      -14.50050        3.08909
H          3.05196      -14.35084        4.14415
H          2.01210      -16.77410        4.47631
H          1.65937      -10.52291        4.03073
H          3.10623      -12.13699        1.84038
H          5.22459      -11.04220        1.18482
H          5.56572       -7.55407        3.50609
H          3.29562       -8.82958        4.20271
H          9.22190       -8.83705       -0.92422
H         13.67625       -6.34634       -1.22051
H         14.56851       -4.47396        3.95453
H         15.66724       -4.85633       -0.88068
H         12.58343       -5.86563        3.63346
