92

C          4.44099       11.93587        5.96721
C          3.46268       12.88209        5.68813
C          2.49553       12.34483        4.81099
C          2.78362       11.04145        4.46561
S          4.16552       10.42776        5.15925
C          1.78583       10.57132        3.58461
C          0.86401       11.57395        3.37581
C          1.26265       12.76093        4.13989
C          0.64583       13.95546        4.21161
C         -0.55981       14.21109        3.50514
N         -1.54902       14.41635        2.93933
C          1.15502       15.01992        5.00503
N          1.56841       15.88843        5.65684
C         -0.15974       11.16063        2.49437
C          0.03863        9.84496        2.06197
S          1.47868        9.15574        2.77144
C         -0.75135        9.05681        1.16468
C         -1.75519        8.32232        1.68254
C         -2.60442        7.51040        0.84863
C         -2.46850        7.47298       -0.61354
C         -1.53287        8.13209       -1.29565
S         -0.33496        9.14777       -0.53766
C         -3.49236        6.62746       -1.09074
C         -4.22576        6.14960       -0.03122
C         -5.27554        5.29992       -0.41624
C         -5.29586        5.17689       -1.79947
S         -4.03193        6.08321       -2.57479
C         -3.65156        6.69755        1.17481
C         -4.15630        6.43167        2.49753
C         -3.40825        5.88497        3.46924
C         -3.93295        5.64286        4.76786
C         -4.95242        6.27564        5.44803
C         -5.18262        5.73823        6.74849
Cl        -6.42405        6.42695        7.71788
C         -4.33513        4.68102        7.05403
S         -3.24339        4.41945        5.74599
C         -4.23445        3.88269        8.26781
C         -3.88666        2.55200        8.44479
Cl        -3.47519        1.39500        7.24347
C         -3.90493        2.15011        9.81527
C         -4.25047        3.16437       10.69209
S         -4.49948        4.61577        9.79830
C         -4.35297        3.14021       12.13047
C         -5.26611        3.92275       12.74315
C         -5.37473        3.99958       14.17268
C         -4.52068        3.21774       15.07091
C         -3.58295        2.36618       14.66112
S         -3.23672        2.06828       12.98274
C         -4.88998        3.57554       16.38254
C         -5.88922        4.51871       16.33906
C         -6.31930        4.93294       17.60800
C         -5.59732        4.26506       18.58783
S         -4.42828        3.16038       17.93179
C         -6.18296        4.77638       14.95062
C         -7.17710        5.69826       14.46057
C         -7.20474        7.00649       14.75957
C         -8.20555        7.86335       14.21591
C         -8.91204        7.76803       13.01251
C         -9.82948        8.82691       12.86397
C         -9.78810        9.68411       13.93976
S         -8.68292        9.28234       15.11147
C        -10.72829       10.71539       13.73556
C        -11.36086       10.51071       12.52665
C        -10.82433        9.30137       11.90159
C        -11.16416        8.75392       10.71833
C        -12.15813        9.33419        9.88383
N        -12.97060        9.80705        9.20310
C        -10.54933        7.56348       10.24224
N        -10.04797        6.58837        9.86166
C        -12.31853       11.51233       12.26369
C        -12.35694       12.43106       13.30559
S        -11.23568       12.05934       14.57250
H          5.30847       12.04759        6.60474
H          3.48683       13.87937        6.11064
H         -1.00225       11.75455        2.16011
H         -1.95786        8.33228        2.74966
H         -1.48527        8.05278       -2.37714
H         -5.97897        4.80617        0.24204
H         -5.98404        4.60250       -2.40536
H         -5.20545        6.67241        2.65060
H         -2.37670        5.59934        3.26797
H         -5.51105        7.10750        5.03574
H         -3.66884        1.14412       10.14465
H         -5.94402        4.55401       12.17712
H         -2.98238        1.82111       15.38216
H         -7.09253        5.66066       17.81712
H         -5.68830        4.36213       19.66074
H         -7.92253        5.25735       13.80241
H         -6.45744        7.43619       15.42431
H         -8.74165        6.96737       12.30343
H        -12.95660       11.59783       11.39264
H        -12.98584       13.30675       13.39478
