114

C          3.27776       -2.95912        3.91929
C          4.38134       -2.37998        3.30324
C          4.06286       -1.08897        2.83015
C          2.74983       -0.76313        3.09731
S          1.88488       -1.93005        3.90736
C          2.49055        0.52818        2.59571
C          3.63544        1.02653        2.02179
C          4.70154        0.03168        2.12787
C          5.97038        0.11278        1.68176
C          6.46024        1.26487        1.00744
N          6.84921        2.21069        0.46452
C          6.89354       -0.94842        1.85781
N          7.64178       -1.82138        2.00571
C          3.43553        2.32980        1.51667
C          2.12452        2.78788        1.73077
S          1.17606        1.53075        2.52213
C          1.52237        4.05639        1.37650
C          0.54067        4.56768        2.14938
C         -0.10782        5.81865        1.85439
C          0.28570        6.66266        0.72130
C          1.23916        6.34230       -0.15155
S          2.14862        4.85806       -0.07031
C         -0.53858        7.80647        0.77329
C         -1.40470        7.69931        1.83363
C         -2.24250        8.81114        1.99912
C         -1.97478        9.74322        1.00805
S         -0.71603        9.23200       -0.07819
C         -1.13324        6.44952        2.48945
C         -1.81250        5.98847        3.66996
C         -3.15532        5.92095        3.81208
C         -3.85106        5.41585        5.00845
C         -5.14355        5.85301        5.42985
O         -5.74941        6.79533        4.61202
C         -7.17377        6.77245        4.46338
C         -5.70578        5.42872        6.67704
O         -6.89956        6.01210        7.05576
C         -6.78294        6.99576        8.08648
C         -5.14864        4.41370        7.52752
C         -3.90674        3.88062        7.06291
C         -3.24363        4.39499        5.80990
N         -2.07022        3.77497        5.57138
S         -1.81265        2.68235        6.77114
N         -3.18876        2.89885        7.64243
C         -5.76028        3.95343        8.79811
C         -4.98861        3.51121        9.89409
C         -5.60397        3.23261       11.09888
C         -6.97578        3.50519       11.27077
C         -7.76921        3.86662       10.21231
C         -7.16573        4.01219        8.97190
C         -7.34543        3.25038       12.62705
C         -6.26677        2.63921       13.28598
C         -5.02748        2.64410       12.38905
C         -4.46841        1.19847       12.21102
C         -5.41802        0.16995       11.59044
C         -3.93272        3.56256       13.01087
C         -4.31705        5.03439       13.19922
C         -6.41555        2.14591       14.56376
C         -7.65230        2.31607       15.19893
C         -8.66955        3.07535       14.58691
C         -8.52481        3.53760       13.28410
C         -7.91785        1.72411       16.50812
C         -7.39718        0.54446       16.87791
C         -7.69724       -0.02049       18.14287
C         -8.05319        0.61194       19.33326
C         -8.25107       -0.32085       20.36312
C         -8.04229       -1.60958       19.92961
S         -7.61466       -1.74922       18.33311
C         -8.23476       -2.49000       21.01262
C         -8.56289       -1.75154       22.12903
C         -8.60294       -0.33421       21.78034
C         -8.89681        0.71631       22.56975
C         -9.22493        0.54690       23.93788
N         -9.49292        0.40750       25.06091
C         -8.89308        2.04803       22.08067
N         -8.89605        3.14311       21.68232
C         -8.74792       -2.57737       23.25955
C         -8.55115       -3.91112       22.92053
S         -8.14783       -4.13216       21.25096
H          3.20990       -3.93657        4.37846
H          5.33251       -2.89225        3.22315
H          4.18572        2.93984        1.02667
H          0.19079        4.05605        3.04107
H          1.47845        7.01292       -0.96981
H         -2.98062        8.94321        2.78014
H         -2.44532       10.70541        0.86389
H         -1.14051        5.67259        4.46668
H         -3.79625        6.26328        3.00335
H         -7.72878        6.96001        5.38141
H         -7.52028        5.84800        3.98996
H         -7.45121        7.61337        3.81945
H         -7.35252        7.87568        7.77303
H         -5.75277        7.28687        8.30590
H         -7.26504        6.62630        8.99643
H         -3.91063        3.39663        9.83295
H         -8.83594        4.02018       10.32846
H         -7.82364        4.25278        8.14005
H         -4.16219        0.80517       13.19081
H         -3.55827        1.22391       11.59853
H         -6.32533        0.03511       12.18721
H         -4.92127       -0.80607       11.53487
H         -5.70754        0.44514       10.57230
H         -3.02389        3.53279       12.39591
H         -3.64900        3.16684       13.99539
H         -4.34115        5.56409       12.24164
H         -3.57626        5.53586       13.83123
H         -5.28928        5.15664       13.68522
H         -5.59439        1.62290       15.04189
H         -9.60079        3.28017       15.10920
H         -9.31571        4.09906       12.79996
H         -8.62009        2.26446       17.13645
H         -6.75235       -0.02094       16.20874
H         -8.13458        1.68930       19.41415
H         -9.00044       -2.26353       24.26135
H         -8.61984       -4.77485       23.56763
