79

C         -0.64365        3.19978        8.87020
C         -1.05094        2.13662        8.07376
C         -1.17822        2.54863        6.73127
C         -0.86490        3.88317        6.57616
S         -0.42531        4.66675        7.97529
C         -1.00570        4.22468        5.21770
C         -1.40878        3.11885        4.51581
C         -1.54368        1.98651        5.42953
C         -1.91396        0.72428        5.14334
C         -2.24686        0.32285        3.81750
N         -2.51775        0.00452        2.73675
C         -1.99488       -0.27699        6.14911
N         -2.05845       -1.09071        6.97376
C         -1.56175        3.40008        3.14212
C         -1.25182        4.72774        2.83136
S         -0.80576        5.59032        4.30246
C         -1.25644        5.39882        1.52623
S         -0.77866        7.05100        1.42821
C         -1.00484        7.17713       -0.26312
C         -1.43295        5.95792       -0.76253
C         -1.57274        4.93800        0.24957
S         -2.10287        3.28802       -0.14426
C         -1.87257        3.21470       -1.85740
O         -1.19917        2.42852       -2.48995
C         -2.77711        4.28750       -2.41293
O         -3.92961        4.16293       -2.76958
S         -1.78155        5.70281       -2.48708
C         -0.70987        8.40078       -0.95192
C         -0.82094        9.60473       -0.36462
C         -0.47439       10.87689       -0.99472
C         -0.62387       11.21551       -2.33973
N         -0.33612       12.41957       -2.93250
C          0.14859       13.48046       -2.20197
C          0.29213       13.30460       -0.80301
C         -0.00504       11.95268       -0.19538
N          0.22633       11.91882        1.13100
S          0.77162       13.42024        1.56474
N          0.62822       14.22067        0.12406
C          0.41735       14.72300       -2.89536
C         -0.26908       15.05650       -4.04852
O          0.14807       16.24407       -4.54079
C          1.12943       16.68260       -3.72042
C          1.33925       15.80825       -2.66676
C          2.38836       15.96675       -1.65493
O          3.01007       14.98975       -1.24480
C          2.68033       17.34690       -1.25348
C          1.86529       18.46541       -1.20267
C          2.58494       19.65536       -0.87474
C          3.92635       19.42311       -0.63002
S          4.27826       17.74285       -0.75846
C          4.96632       20.36035       -0.34481
C          5.25682       20.76441        0.91022
O          6.24110       21.69691        1.21477
C          7.01507       22.20448        0.20789
C          8.04099       23.07688        0.57619
C          8.86986       23.63094       -0.40060
C          8.66802       23.31790       -1.74543
C          7.63842       22.44815       -2.11362
C          6.81481       21.88907       -1.12933
C          5.72718       20.96149       -1.48130
O          5.47310       20.71386       -2.65523
C          4.58135       20.26464        2.15694
H         -0.45999        3.19637        9.93621
H         -1.23199        1.14741        8.47498
H         -1.87045        2.66882        2.41369
H         -0.37170        8.32207       -1.98213
H         -1.15775        9.69734        0.66730
H         -1.02015       10.48125       -3.04195
H         -1.04531       14.56507       -4.62187
H          1.60014       17.60933       -4.02378
H          0.80611       18.45468       -1.43622
H          2.14041       20.64418       -0.85193
H          8.19822       23.32246        1.62345
H          9.67312       24.30571       -0.11282
H          9.31398       23.75006       -2.50653
H          7.48392       22.20587       -3.16300
H          4.22397       19.23593        2.06822
H          3.73972       20.91501        2.41443
H          5.28566       20.28042        2.99722
