99

C        -10.26403       11.85569        0.49835
C         -9.45235       12.74984       -0.19044
C         -8.12290       12.28136       -0.22938
C         -7.99651       11.07127        0.41650
S         -9.39883       10.47352        1.07942
C         -6.65430       10.65403        0.34003
C         -5.92383       11.59486       -0.34556
C         -6.81458       12.68569       -0.75167
C         -6.50994       13.80287       -1.43906
C         -5.18743       14.07021       -1.88368
N         -4.10798       14.29451       -2.24634
C         -7.49794       14.77695       -1.75422
N         -8.30741       15.56937       -2.00734
C         -4.56312       11.22157       -0.43982
C         -4.30369       10.00713        0.21719
S         -5.80408        9.33266        0.84933
C         -3.06370        9.28485        0.38889
C         -2.87137        8.57935        1.52499
C         -1.70437        7.77520        1.74689
C         -0.58515        7.73779        0.80211
C         -0.56508        8.39034       -0.35883
S         -1.88742        9.37834       -0.92250
C          0.38284        6.88251        1.36647
C         -0.07569        6.39843        2.56844
C          0.82443        5.52738        3.20078
C          1.96269        5.38328        2.41914
S          1.89667        6.31295        0.95230
C         -1.38947        6.95336        2.78985
C         -2.19383        6.65899        3.95010
C         -3.43100        6.14174        3.88613
C         -4.18351        5.78972        5.09256
C         -4.17566        4.50757        5.65320
C         -4.92470        4.19105        6.83945
N         -4.83726        2.93042        7.32505
C         -4.09415        2.01178        6.67909
C         -3.38973        2.32962        5.55282
N         -3.42177        3.56996        5.03427
C         -5.73424        5.15407        7.51436
C         -5.75349        6.47336        6.96069
C         -4.96016        6.79119        5.72242
N         -5.08187        8.07077        5.32549
S         -6.09053        8.81501        6.40094
N         -6.42929        7.54777        7.41067
C         -6.54007        4.86648        8.73283
C         -6.89402        5.69468        9.81097
C         -7.66976        5.00585       10.77314
C         -7.88286        3.70142       10.39747
S         -7.24764        3.27872        8.93635
C         -8.65231        3.04977       11.37656
C         -8.93803        3.94475       12.37844
C         -8.33987        5.24349       12.05336
C         -8.41459        6.38800       12.76104
C         -9.15016        6.45062       13.97747
N         -9.76825        6.45957       14.96069
C         -7.77151        7.58100       12.33154
N         -7.24241        8.55781       11.99683
C         -9.68718        3.33185       13.40222
C        -10.01574        2.00792       13.08221
S         -9.25321        1.51920       11.59435
C        -10.78757        1.04185       13.79243
C        -11.81157        1.36006       14.59619
C        -12.24345        0.36545       15.63581
O        -12.12920       -0.83821       15.61306
C        -12.73974        1.19377       16.75712
C        -13.10278        0.75535       18.01635
C        -13.40322        1.72454       18.98120
C        -13.26675        3.11232       18.66821
C        -13.50501        4.06747       19.66207
C        -13.91320        3.66442       20.92735
C        -14.09049        2.32144       21.23212
C        -13.82736        1.35115       20.26445
F        -14.14736        4.58983       21.86640
C        -12.91188        3.51783       17.37165
C        -12.70883        2.55209       16.40272
C        -12.43979        2.62983       14.95321
C        -12.98646        3.54086       14.10967
C        -13.01796        3.33533       12.69710
N        -13.10261        3.17574       11.54890
C        -13.67514        4.69078       14.57419
N        -14.22538        5.63679       14.96571
H        -11.32487       11.93672        0.69419
H         -9.83815       13.66607       -0.61962
H         -3.78079       11.78936       -0.93187
H         -3.60152        8.58403        2.32698
H          0.29595        8.31332       -1.01516
H          0.67355        5.02714        4.14863
H          2.83600        4.77942        2.62374
H         -1.71774        6.83997        4.91135
H         -3.91772        5.91329        2.94141
H         -4.08723        1.01516        7.10476
H         -2.77356        1.60490        5.03459
H         -6.59400        6.73398        9.87605
H         -9.99428        3.80605       14.32462
H        -10.45500        0.00368       13.74460
H        -13.13697       -0.30833       18.23356
H        -13.38820        5.13020       19.46692
H        -14.42870        2.03763       22.22357
H        -13.96478        0.30217       20.51942
H        -12.80436        4.57609       17.14673
