96

C         -1.13301       10.03068       -2.69996
C         -1.36597        8.74068       -3.16081
C         -0.94678        7.79193       -2.20215
C         -0.42580        8.39639       -1.07683
S         -0.41617       10.05929       -1.12256
C         -0.03412        7.39597       -0.15859
C         -0.30762        6.15896       -0.70076
C         -0.89712        6.33926       -2.03241
C         -1.30009        5.39463       -2.90549
C         -1.18869        4.00841       -2.60335
N         -1.10242        2.88110       -2.35738
C         -1.85660        5.72761       -4.16903
N         -2.31359        6.00098       -5.19990
C          0.05222        5.11413        0.18259
C          0.59139        5.61010        1.37566
S          0.64238        7.35920        1.35923
C          1.06161        4.90287        2.53322
C          0.17746        4.63025        3.51381
C          0.57011        3.94984        4.72381
C          1.92733        3.42478        4.92725
C          2.92777        3.58870        4.06256
S          2.76187        4.46168        2.55930
C          1.92585        2.78013        6.18410
C          0.68267        2.89464        6.75669
C          0.58512        2.29965        8.02409
C          1.80200        1.72431        8.36261
S          3.01444        1.94210        7.13457
C         -0.14900        3.63252        5.84054
C         -1.52543        3.94620        6.10602
C         -1.98700        5.20374        6.13661
C         -3.36497        5.46242        6.34876
S         -3.89392        7.13993        6.30385
C         -5.44766        6.59308        6.44910
C         -5.51937        5.22497        6.58118
N         -4.33126        4.56103        6.52197
C         -6.94684        4.72871        6.62230
C         -7.64746        6.06643        6.42811
C         -6.75014        7.11201        6.36014
S         -7.41673        8.60294        6.09256
C         -9.00710        7.89258        5.99459
C         -8.96452        6.51437        6.22199
C        -10.10036        8.75039        5.69427
C        -11.34725        8.26973        5.59702
C        -12.51276        9.07136        5.29768
C        -13.25739        8.72564        4.23237
C        -14.47356        9.41287        3.91379
C        -14.95455       10.56187        4.69187
C        -14.34513       11.04667        5.77226
S        -12.88266       10.36784        6.42237
C        -16.13653       11.00074        4.06389
C        -16.40037       10.20388        2.97665
C        -17.56544       10.56588        2.28576
C        -18.15479       11.65834        2.90691
S        -17.26897       12.20389        4.29907
C        -15.35954        9.20887        2.89951
C        -15.28410        8.22500        1.85174
C        -15.23977        6.89623        2.04432
C        -15.18618        5.97387        0.95442
C        -14.61616        4.69524        0.93896
C        -14.73441        4.08976       -0.33222
C        -15.41379        4.90071       -1.21086
S        -15.92424        6.34395       -0.58663
C        -15.50212        4.25999       -2.46064
C        -14.87751        3.03470       -2.37706
C        -14.35437        2.85383       -1.02063
C        -13.67652        1.80002       -0.52637
C        -13.38011        0.66185       -1.32526
N        -13.13968       -0.26658       -1.97986
C        -13.21807        1.77321        0.81872
N        -12.84329        1.75975        1.91741
C        -14.92974        2.34609       -3.60701
C        -15.59972        3.10369       -4.56093
S        -16.14770        4.62668       -3.94743
H         -1.34615       10.96333       -3.20625
H         -1.81066        8.54601       -4.12952
H         -0.06154        4.05138        0.00284
H         -0.86539        4.91617        3.41253
H          3.91060        3.18347        4.28209
H         -0.29188        2.27955        8.65922
H          2.05145        1.18761        9.26823
H         -2.18307        3.10237        6.30744
H         -1.31867        6.04363        5.96786
H         -7.19498        4.28495        7.59002
H         -7.16413        4.04224        5.80005
H         -9.83171        5.86744        6.19948
H         -9.90783        9.80951        5.53047
H        -11.55682        7.21172        5.72871
H        -12.94808        7.91221        3.58232
H        -14.75448       11.90090        6.30057
H        -17.96559       10.07930        1.40569
H        -19.06296       12.17170        2.62331
H        -15.28849        8.65404        0.85224
H        -15.22878        6.48712        3.05230
H        -14.12831        4.27050        1.80881
H        -14.52140        1.36810       -3.82872
H        -15.79953        2.84786       -5.59265
