85

C         -9.69393        6.06156        4.51134
C         -9.02642        4.84244        4.54823
C         -7.85047        4.89974        3.77142
C         -7.68701        6.14185        3.19532
S         -8.88299        7.24369        3.54036
C         -6.49731        6.13926        2.44173
C         -5.91010        4.89958        2.53630
C         -6.73085        4.03710        3.38301
C         -6.50719        2.75343        3.72418
C         -5.36778        2.03322        3.25738
N         -4.45020        1.44174        2.87503
C         -7.40524        2.04473        4.56639
N         -8.14183        1.46630        5.25397
C         -4.71045        4.83582        1.79927
C         -4.43038        6.05497        1.18116
S         -5.67030        7.23550        1.51662
C         -3.29661        6.39036        0.35933
S         -3.38329        7.54583       -0.92654
C         -1.72536        7.38344       -1.33579
C         -1.19369        6.44419       -0.52108
C         -2.02611        5.87322        0.43877
S         -1.25157        4.65287        1.52438
C          0.22429        4.94307        0.60695
C          1.41801        4.22167        1.01828
O          1.49972        3.41452        1.93752
O          2.48063        4.63428        0.26507
C          3.76741        4.22768        0.74796
C          4.22538        5.21052        1.81080
C          0.10492        5.89156       -0.42231
C         -1.16750        8.11997       -2.39967
C         -0.59924        9.31571       -2.18042
C          0.00860       10.04882       -3.23706
C          0.20540        9.78147       -4.56358
C          0.93480       10.73177       -5.28031
S          1.13535       10.20976       -7.00628
C          0.12706        8.80601       -6.50727
N         -0.24048        8.67577       -5.22965
C         -0.27877        7.81364       -7.54872
C          1.31386       11.79791       -4.51731
S          0.65028       11.62622       -2.93928
C          2.04904       12.94972       -4.96380
O          1.89967       13.40125       -6.24590
C          2.65764       14.52498       -6.45319
C          3.30596       14.79871       -5.25219
C          2.96103       13.77534       -4.30650
C          3.50307       13.62961       -2.93583
F          3.29933       12.41524       -2.37084
F          4.85018       13.81198       -2.90147
F          2.96351       14.54845       -2.09092
O          4.18383       15.83109       -5.15679
C          4.14326       16.55802       -3.93298
C          2.70914       15.21953       -7.70221
C          2.01674       14.78118       -8.76480
C          2.07292       15.46470      -10.00999
C          1.29020       16.45499      -10.54067
C          1.63859       16.86210      -11.82902
S          0.56405       18.16920      -12.43289
C         -0.24364       17.97220      -10.83329
N          0.21992       17.07131       -9.95130
C         -1.41586       18.85634      -10.54779
C          2.69846       16.18847      -12.34577
S          3.25512       15.02894      -11.20302
H        -10.61920        6.32733        5.00449
H         -9.39866        3.99631        5.11171
H         -4.07269        3.96689        1.70551
H          4.45852        4.24582       -0.10092
H          3.74930        3.20071        1.12928
H          4.25173        6.22814        1.40603
H          5.21853        4.94988        2.18394
H          3.52653        5.22741        2.65373
H          0.93904        6.17258       -1.05632
H         -1.21007        7.65867       -3.37981
H         -0.57937        9.73571       -1.17669
H         -0.48932        8.29558       -8.50725
H         -1.19227        7.29562       -7.23224
H          0.50315        7.06134       -7.68542
H          4.71023       17.48303       -4.07522
H          4.64222       16.01895       -3.12601
H          3.12001       16.82589       -3.64915
H          3.32590       16.11017       -7.76362
H          1.38891       13.89458       -8.71129
H         -1.87668       19.24520      -11.46137
H         -1.10087       19.70332       -9.93064
H         -2.18082       18.29682      -10.00027
H          3.15127       16.31941      -13.31879
