108

C         -0.96559       -1.67458       -8.48333
C         -1.34649       -2.14143       -9.73973
F         -0.73182       -1.66397      -10.83020
C         -2.35452       -3.08624       -9.86733
F         -2.72498       -3.52122      -11.07956
C         -2.99285       -3.59049       -8.74083
C         -2.62876       -3.13582       -7.46568
C         -1.60263       -2.15259       -7.32604
C         -1.25183       -1.67154       -6.04282
C         -1.92397       -2.14446       -4.91959
C         -2.89364       -3.14242       -5.09241
C         -3.26600       -3.64125       -6.32993
C         -3.42065       -3.59131       -3.79252
O         -4.39445       -4.29616       -3.63828
C         -2.54927       -2.93411       -2.75965
C         -1.85499       -1.82885       -3.46368
C         -1.44292       -0.65354       -2.92245
C         -1.60864       -0.36150       -1.53793
N         -1.74990       -0.13418       -0.40618
C         -0.90892        0.40084       -3.70158
N         -0.46330        1.26390       -4.35287
C         -2.31851       -3.40466       -1.52076
C         -2.88876       -4.59744       -0.98545
C         -4.00300       -4.80809       -0.19763
C         -4.18561       -6.19543        0.18089
C         -5.24754       -6.63922        0.98598
C         -6.12973       -5.60743        1.35425
C         -5.94042       -4.24294        0.98941
C         -4.86187       -3.77745        0.20525
C         -3.18688       -7.02162       -0.30229
S         -2.02894       -6.08102       -1.18428
C         -2.93134       -8.42091       -0.18032
C         -3.91759       -9.33086       -0.18939
C         -3.78633      -10.77528       -0.04312
C         -4.92148      -11.49983       -0.02153
C         -4.92595      -12.93319        0.05927
C         -3.69592      -13.70231        0.25449
C         -2.47709      -13.17058        0.28739
S         -2.17519      -11.47372        0.09054
C         -4.07435      -15.05458        0.33942
C         -5.43542      -15.16094        0.18990
C         -5.89553      -16.48638        0.25819
C         -4.82076      -17.34755        0.43987
S         -3.29939      -16.51818        0.54109
C         -5.95641      -13.82620       -0.00872
C         -7.35526      -13.54027       -0.21042
C         -7.83043      -12.57237       -1.01292
C         -9.22151      -12.32590       -1.18501
C         -9.88447      -11.14091       -1.44620
C        -11.31085      -11.31835       -1.58459
C        -12.18098      -10.25569       -1.85835
C        -11.54842       -9.00942       -1.97287
C        -10.14790       -8.83362       -1.83122
C         -9.24964       -9.89066       -1.56100
C        -11.71588      -12.63286       -1.44182
S        -10.34507      -13.63470       -1.16805
C        -12.97919      -13.28962       -1.49785
C        -14.10838      -12.67044       -1.13083
C        -15.40735      -13.27508       -1.17867
C        -16.03867      -13.75631       -2.25365
C        -17.24503      -14.59935       -2.00435
O        -17.90471      -14.68319       -0.99011
C        -17.43439      -15.37494       -3.23598
C        -18.43805      -16.30236       -3.45180
C        -18.49731      -16.91775       -4.70299
C        -17.49781      -16.63406       -5.68383
C        -17.57858      -17.24739       -6.93956
C        -18.63567      -18.10361       -7.23013
C        -19.60958      -18.37244       -6.27835
C        -19.54341      -17.79441       -5.01569
F        -20.63231      -19.18575       -6.57185
F        -18.71146      -18.65814       -8.44757
C        -16.46819      -15.71649       -5.40427
C        -16.46626      -15.03759       -4.19485
C        -15.69542      -13.87052       -3.67858
C        -15.10678      -12.93894       -4.47000
C        -14.90954      -11.59660       -4.03996
N        -14.84210      -10.46832       -3.77813
C        -14.82317      -13.14929       -5.84796
N        -14.58571      -13.32888       -6.97165
H         -0.17548       -0.92954       -8.42850
H         -3.77707       -4.33136       -8.87465
H         -0.45646       -0.93468       -5.96292
H         -4.03182       -4.40965       -6.39459
H         -1.58435       -2.93289       -0.87477
H         -5.41386       -7.65389        1.32027
H         -7.00068       -5.86861        1.95607
H         -6.67511       -3.51913        1.34125
H         -4.74154       -2.73228       -0.04393
H         -1.89387       -8.73099       -0.09937
H         -4.94034       -8.98538       -0.33337
H         -5.88167      -10.99779       -0.06175
H         -1.60569      -13.80209        0.41705
H         -6.92225      -16.81768        0.17170
H         -4.83634      -18.42583        0.51568
H         -8.03221      -14.20151        0.32704
H         -7.15732      -11.92012       -1.55945
H        -13.24682      -10.32082       -1.98278
H        -12.17589       -8.14325       -2.18494
H         -9.75508       -7.82295       -1.94248
H         -8.18785       -9.71081       -1.46291
H        -12.99989      -14.33488       -1.80683
H        -14.10087      -11.67656       -0.69860
H        -15.88142      -13.34496       -0.19558
H        -19.16904      -16.50189       -2.67196
H        -16.84344      -17.04956       -7.71475
H        -20.32589      -18.01954       -4.29687
H        -15.71924      -15.53134       -6.16789
