112

C         -7.49598       -6.93885       10.41282
C         -6.24625       -6.53574       10.88631
F         -5.72967       -7.13615       11.96711
C         -5.52327       -5.54888       10.23182
F         -4.30639       -5.19587       10.66767
C         -6.04268       -4.93039        9.10403
C         -7.28563       -5.32856        8.59984
C         -8.02896       -6.37111        9.24256
C         -9.22047       -6.86653        8.65235
C         -9.61491       -6.36203        7.42051
C         -8.89480       -5.28780        6.86470
C         -7.75511       -4.75055        7.42389
C         -9.33247       -5.04293        5.48600
O         -9.30241       -3.99758        4.87694
C         -9.95310       -6.34099        5.09633
C        -10.52245       -6.87971        6.34996
C        -11.68463       -7.55292        6.47503
C        -12.23773       -7.86778        7.75331
N        -12.68488       -8.09788        8.79319
C        -12.47388       -7.86681        5.33086
N        -13.09097       -8.10613        4.38428
C         -9.55212       -7.03126        4.01096
C         -8.51111       -6.54360        3.15750
S         -6.86540       -6.78606        3.62887
C         -6.27081       -5.92097        2.28670
C         -7.28412       -5.47121        1.46770
C         -8.57765       -5.90122        1.92963
C         -9.83507       -5.57841        1.16942
C         -9.59058       -5.23900       -0.32678
C         -8.41842       -4.21437       -0.41564
C         -7.09188       -4.65678        0.22721
C         -9.54159       -6.46943       -1.26906
C         -8.47765       -6.72840       -2.05839
C        -10.63165       -7.41055       -1.45496
S        -10.63486       -8.87040       -0.52822
C        -11.99293       -9.49240       -1.34517
C        -12.46869       -8.63306       -2.30955
C        -11.72385       -7.39270       -2.32589
C        -12.15736       -6.26874       -3.23758
C        -13.67537       -6.34298       -3.59361
C        -14.01109       -7.75182       -4.13414
C        -13.66367       -8.90234       -3.18328
C        -14.64790       -5.86006       -2.50904
C        -15.83119       -5.29942       -2.82215
C        -14.26457       -6.00679       -1.11206
C        -14.05426       -5.03822       -0.20812
C        -13.63379       -5.29723        1.14800
C        -13.64617       -4.20872        1.92885
C        -14.09916       -3.00748        1.24718
S        -14.24919       -3.32721       -0.48141
C        -14.43586       -1.84161        1.83133
C        -14.40520       -1.55742        3.25458
C        -14.97368       -0.39050        3.58918
C        -15.49257        0.34237        2.45612
S        -15.08476       -0.45478        0.95885
C        -16.24491        1.44876        2.55688
C        -16.79277        2.20924        1.44735
C        -17.85209        3.02751        1.49108
C        -18.06035        4.01860        0.38314
O        -17.63988        3.98481       -0.75221
C        -18.81424        5.12738        1.00204
C        -19.14667        4.80663        2.32806
C        -19.66135        5.79596        3.15045
C        -19.89115        7.08326        2.61455
C        -19.63435        7.35837        1.25114
C        -19.07103        6.36533        0.43608
C        -19.87095        8.64698        0.66504
N        -20.02534        9.66684        0.13348
C        -20.39068        8.14679        3.51728
O        -21.11495        9.07210        3.21856
O        -19.88835        8.00550        4.75628
C        -18.79993        3.37973        2.54992
C        -19.48825        2.51966        3.33922
C        -19.33395        1.10464        3.23976
N        -19.24332       -0.04937        3.16532
C        -20.51869        2.95776        4.21864
N        -21.35308        3.34046        4.92859
H         -8.01655       -7.72826       10.94860
H         -5.44622       -4.17077        8.60482
H         -9.73781       -7.70475        9.11264
H         -7.19087       -3.99883        6.87797
H         -9.83508       -8.07024        3.86767
H         -5.20475       -5.77932        2.15972
H        -10.27948       -4.69763        1.65346
H        -10.55768       -6.39185        1.27859
H        -10.48331       -4.68874       -0.65874
H         -8.74374       -3.30176        0.10493
H         -8.24011       -3.90706       -1.45321
H         -6.50644       -3.75928        0.47110
H         -6.48064       -5.22519       -0.48134
H         -7.58841       -6.11503       -2.07735
H         -8.45408       -7.58420       -2.72929
H        -12.38775      -10.46337       -1.07730
H        -11.58067       -6.35572       -4.16835
H        -11.92057       -5.29352       -2.79949
H        -13.81132       -5.65211       -4.44015
H        -13.44554       -7.89561       -5.06591
H        -15.06826       -7.82413       -4.42312
H        -13.47378       -9.80298       -3.78313
H        -14.53128       -9.12688       -2.55115
H        -16.15108       -5.16275       -3.84966
H        -16.51579       -4.94575       -2.05404
H        -14.11328       -7.03672       -0.79687
H        -13.35105       -6.28434        1.48967
H        -13.37719       -4.23541        2.97408
H        -13.99160       -2.23812        3.98454
H        -15.06335       -0.03943        4.60796
H        -16.45965        1.82714        3.55419
H        -16.21886        2.16481        0.51879
H        -19.86683        5.61027        4.20217
H        -18.80497        6.55883       -0.60157
H        -20.24187        8.77538        5.25363
