76

C          3.66125        3.34886        2.66851
C          2.53910        2.95977        3.28693
C          1.32554        3.62620        2.86583
S          1.69279        4.82659        1.67162
C          3.40117        4.40295        1.67216
O          4.25358        4.89369        0.95257
C          0.11821        3.31879        3.35938
C         -1.20175        3.88433        3.05496
C         -1.97217        3.81909        1.86873
O         -1.47564        3.29045        0.68696
C         -0.78777        2.04778        0.74731
C         -3.32649        4.36604        1.74434
O         -3.78286        4.20456        0.45153
C         -5.11142        4.46045        0.04715
C         -4.01047        4.98769        2.83332
C         -3.24561        5.02370        4.02881
C         -1.88392        4.50224        4.12892
N         -1.45005        4.71522        5.38187
O         -2.47765        5.34480        6.04624
N         -3.58530        5.49281        5.24166
C         -5.36099        5.55296        2.87502
O         -6.33071        4.67017        2.52714
C         -7.54275        5.30780        2.45361
C         -7.35110        6.60795        2.92490
C         -5.94804        6.76314        3.24400
C         -5.23911        7.93002        3.83140
F         -3.88767        7.81647        3.80431
F         -5.51229        9.08747        3.18027
F         -5.58919        8.12513        5.13265
O         -8.43402        7.42574        3.00808
C         -8.26241        8.70656        3.58071
C         -8.69336        4.59971        1.98375
C         -9.62786        5.13781        1.18023
C        -10.80822        4.44688        0.58392
C        -11.35843        3.16870        0.90136
O        -10.77874        2.49271        1.95833
C        -10.21619        1.21758        1.64850
C        -12.53969        2.63809        0.26962
O        -12.93482        1.32468        0.43842
C        -13.28335        0.93433        1.76296
C        -13.28660        3.35819       -0.70252
C        -12.72706        4.60512       -1.06377
C        -11.51435        5.13710       -0.43761
N        -11.26676        6.33040       -1.00180
O        -12.25710        6.54419       -1.93398
N        -13.15096        5.49861       -1.97056
C        -14.48118        2.88530       -1.41842
C        -15.60182        2.38698       -0.87451
S        -16.84660        1.64438       -1.84400
C        -17.62743        0.96061       -0.42625
O        -18.53800        0.15090       -0.43861
C        -17.00887        1.50291        0.79522
C        -15.95799        2.28508        0.51831
H          4.65640        2.97009        2.83746
H          2.53210        2.19275        4.05136
H          0.06597        2.55752        4.13899
H          0.28477        2.22184        0.62876
H         -1.10532        1.44239       -0.10762
H         -0.99187        1.47108        1.65452
H         -5.79797        3.72610        0.47605
H         -5.15777        4.31888       -1.03758
H         -5.40500        5.49448        0.23861
H         -9.25087        9.17307        3.64555
H         -7.65913        9.34922        2.93628
H         -7.86668        8.64618        4.59737
H         -8.71763        3.55566        2.26121
H         -9.50824        6.18118        0.88062
H        -10.54050        0.52015        2.42836
H         -9.12733        1.28017        1.70987
H        -10.49463        0.82104        0.66845
H        -14.31161        0.56768        1.75509
H        -13.20021        1.73605        2.50139
H        -12.66646        0.07940        2.05037
H        -14.39426        2.92731       -2.50442
H        -17.39077        1.25266        1.77145
H        -15.38373        2.77725        1.29182
