132

C         -0.19205        2.20608        5.29134
C          0.44040        3.46298        5.33308
C          0.26677        4.44113        6.37060
N          0.18026        5.27966        7.16437
C          1.31680        4.11762        4.40122
N          2.02247        4.76696        3.75013
C         -1.40521        1.93034        6.14697
C         -2.03046        0.75777        5.78222
C         -3.24395        0.34905        6.33410
C         -3.88403        1.16468        7.29182
C         -3.25787        2.39129        7.68276
C         -2.02903        2.73634        7.10164
C         -3.82303        3.39001        8.64815
O         -4.89619        3.21957        9.19157
O         -3.12365        4.51359        8.94413
C         -3.54137        5.43326        9.87865
C         -5.19683        0.69367        7.80910
O         -5.60083        0.99333        8.91989
O         -5.96805       -0.08174        7.01814
C         -7.33993       -0.11719        7.13865
C         -1.28301        0.10929        4.74377
O         -1.58481       -0.96678        4.24168
C         -0.10931        0.93859        4.39519
C          0.73783        0.42367        3.46464
C          2.03640        0.92431        3.04502
C          2.64817        0.67991        1.81510
C          3.94844        1.15050        1.77145
C          4.27619        1.82531        2.89800
S          3.06549        1.79852        4.01817
C          5.57820        2.36823        2.92783
C          6.30622        2.09838        1.81444
Ge         5.33776        1.12500        0.43467
C          6.68040       -0.11303       -0.20188
C          4.27391        1.23545       -1.19585
C          7.61149        2.51787        1.93684
C          7.82439        3.19468        3.14799
S          6.41321        3.23357        4.08618
C          9.06803        3.87051        3.49837
C         10.17929        3.89038        2.66796
C         10.96050        5.00625        2.95808
C         10.69521        5.59270        4.21408
S          9.19722        5.02580        4.70526
C         11.10597        6.88387        4.45192
O         12.46652        6.92102        4.57541
C         13.26865        8.01114        4.25861
C         10.68310        7.62071        3.36919
C         10.94904        7.15477        2.07485
C         11.41815        5.79770        1.86124
O         11.67149        5.22394        0.65010
C         12.11556        5.87191       -0.48653
S         10.22303        8.28146        1.02560
C          9.52384        9.25163        2.25795
C          9.93708        8.76341        3.48460
C          8.50789       10.32997        2.15462
C          8.01502       11.03057        3.26979
C          6.97785       11.88169        2.95108
C          6.66837       11.90441        1.61953
S          7.65350       10.82703        0.75915
C          5.49344       12.71050        1.33761
C          4.88884       13.25033        2.43286
Ge         5.88871       13.03406        4.06330
C          4.60699       13.38522        5.47317
C          7.22676       14.26016        4.81397
C          3.62063       13.78599        2.17833
C          3.33512       13.86332        0.81214
S          4.53436       12.98654        0.02542
C          2.15824       14.61209        0.29051
C          1.67777       14.86357       -0.96642
C          2.08045       14.50828       -2.40627
C          3.26242       14.11818       -3.01874
C          3.36971       13.62199       -4.36515
N          3.51654       13.21276       -5.43983
C          4.59845       14.14679       -2.51776
N          5.72200       14.11473       -2.23261
C          0.85676       14.84788       -3.22062
C         -0.09206       15.48448       -2.45238
C          0.36032       15.54652       -1.08093
O         -0.28668       16.03238       -0.16090
C         -1.27821       15.98575       -2.99566
C         -1.52493       15.86596       -4.38623
C         -0.53851       15.21593       -5.20814
C          0.62636       14.72404       -4.59647
C         -0.59809       15.04847       -6.70588
O         -1.16208       15.86460       -7.40934
O          0.09310       14.05060       -7.30988
C          0.57978       14.14623       -8.59748
C         -2.81944       16.40921       -4.90877
O         -3.61321       16.94863       -4.14990
O         -3.12409       16.29991       -6.21871
C         -4.26231       16.74423       -6.84050
H         -3.69094       -0.58557        6.01230
H         -1.62263        3.65840        7.40323
H         -2.80875        6.26121        9.92427
H         -3.60237        4.94582       10.87507
H         -4.53699        5.84054        9.59563
H         -7.73499       -0.85080        6.41570
H         -7.77530        0.88773        6.91001
H         -7.63669       -0.42066        8.16126
H          0.46922       -0.52914        2.99500
H          2.15939        0.21604        0.99901
H          7.54847       -0.13561        0.48480
H          7.03094        0.29711       -1.17717
H          6.24562       -1.11414       -0.36721
H          3.39532        1.89733       -1.07619
H          3.90279        0.20411       -1.40034
H          4.89529        1.54298       -2.05785
H          8.35403        2.34185        1.17932
H         10.16524        3.32937        1.75439
H         14.26080        7.66430        3.91204
H         13.35830        8.66262        5.14405
H         12.85223        8.61988        3.42583
H         13.22723        6.02584       -0.49785
H         11.61660        6.82717       -0.59333
H         11.73792        5.34295       -1.38091
H          9.64124        9.13810        4.45278
H          8.35963       10.91983        4.28258
H          3.62177       12.97336        5.19891
H          4.51405       14.49383        5.57131
H          4.97443       12.98949        6.43869
H          8.07612       14.46202        4.13418
H          7.61476       13.77930        5.73897
H          6.76249       15.22058        5.12443
H          2.94899       14.13214        2.94758
H          1.56103       15.02358        1.10911
H         -1.99504       16.47694       -2.34759
H          1.33978       14.29386       -5.24437
H          1.12533       13.21674       -8.82851
H          1.34643       14.93895       -8.64032
H         -0.21528       14.39716       -9.34152
H         -4.18687       16.60341       -7.92945
H         -4.35029       17.83880       -6.74234
H         -5.12336       16.14615       -6.48654
