75

C         -0.75689       -2.94028        1.01322
C          0.56397       -2.47000        1.53809
N          1.73016       -3.05143        1.21804
C          2.73896       -2.19575        1.59490
C          4.08747       -2.29021        1.36006
C          4.85592       -3.38645        0.61498
C          6.18197       -3.76072        0.88183
C          7.15671       -3.37336        1.90825
C          6.95119       -2.94294        3.22136
C          8.17485       -2.65687        3.85255
C          9.26586       -3.14730        3.17885
S          8.88769       -3.54413        1.60296
C         10.48178       -3.21778        3.92167
S         11.95613       -3.92453        3.59148
C         12.64984       -3.33926        5.07574
C         14.10678       -3.59298        5.47574
C         14.58042       -3.62954        6.79435
C         13.89824       -3.54788        8.07810
S         12.38896       -4.33888        8.42369
C         12.25571       -3.64498        9.99009
C         13.43427       -3.04517       10.28959
N         13.78231       -2.56888       11.51530
C         15.06201       -2.18130       11.42051
C         15.88219       -1.78278       12.60581
S         15.88498       -2.18979        9.82067
C         14.36004       -2.98958        9.24465
S         16.27844       -3.91616        6.80913
C         16.42061       -3.95206        5.11362
C         17.62360       -4.10434        4.38708
C         17.58650       -4.15772        2.99317
C         16.37524       -4.05548        2.32754
C         16.31314       -4.13943        0.89676
N         16.27047       -4.21136       -0.26216
C         15.19621       -3.86821        3.06363
C         15.18052       -3.81817        4.49066
C         11.70740       -2.62053        5.80865
C         10.44888       -2.69936        5.19317
Si         8.72128       -2.09116        5.55068
C          8.81054       -0.26771        5.87840
C          7.70443       -2.91635        6.84676
S          6.67866       -5.01276       -0.20333
C          5.19601       -5.08282       -1.01304
C          4.90062       -5.95240       -2.08412
C          3.63620       -5.91547       -2.66659
C          2.70252       -4.99961       -2.21325
C          1.39182       -4.95423       -2.80040
N          0.33569       -4.91917       -3.26579
C          3.02864       -4.11500       -1.17741
C          4.28409       -4.16099       -0.50430
S          4.81384       -0.83344        1.96537
C          3.36348       -0.25292        2.67123
C          2.33930       -1.06722        2.31845
S          0.55669       -1.00132        2.56834
H         -0.61735       -3.78690        0.33322
H         -1.24161       -2.13994        0.44189
H         -1.42414       -3.24987        1.82179
H          5.97657       -2.85216        3.68315
H         11.38799       -3.78814       10.61746
H         15.23656       -1.57466       13.46482
H         16.48046       -0.88998       12.40347
H         16.55496       -2.60185       12.88344
H         18.57429       -4.18189        4.90798
H         18.51449       -4.28112        2.43769
H         14.28156       -3.75358        2.49191
H         11.91611       -2.09618        6.73131
H          9.67685        0.18183        5.38082
H          8.91932       -0.07495        6.95105
H          7.91502        0.25157        5.52920
H          7.60979       -3.98979        6.65410
H          6.69165       -2.49875        6.85291
H          8.12417       -2.78796        7.84760
H          5.65205       -6.65004       -2.45143
H          3.40315       -6.60146       -3.47817
H          2.28521       -3.37721       -0.89487
H          3.30776        0.65420        3.25715
