103

C         10.61882       13.29688       -2.58584
C          9.71702       12.61631       -1.78198
C          9.87162       11.21130       -1.80218
C          9.09579       10.24802       -1.09340
C          7.91782       10.60766       -0.22660
C          7.43359        9.89664        0.88093
C          6.29538       10.45712        1.47429
C          5.85619       11.61348        0.84384
S          6.89024       11.93384       -0.43464
C          4.67448       12.45266        1.20807
Cl         5.52396        9.74013        2.87940
C          9.49275        8.89887       -1.26991
C         10.56208        8.51034       -2.09459
C         11.32255        9.46498       -2.81505
C         10.94576       10.81291       -2.62286
S         11.62192       12.18471       -3.32895
C         12.43569        9.08319       -3.75186
C         13.59135        9.81722       -4.04245
C         14.43121        9.21139       -4.98982
C         13.94388        8.00151       -5.47117
S         12.48719        7.69084       -4.71147
C         14.56910        7.10267       -6.48939
Cl        15.94577        9.93721       -5.49988
C         10.77840        7.12053       -2.07760
C          9.87670        6.41051       -1.29425
S          8.80389        7.50289       -0.61586
C          9.85199        4.95037       -1.06726
N          8.84412        4.39674       -0.33012
N          8.76883        3.07661       -0.09980
C          9.71045        2.19323       -0.55838
C         10.74353        2.74478       -1.32651
C         10.80722        4.07155       -1.57280
N         11.88392        4.30609       -2.33893
O         12.41822        3.13229       -2.54546
N         11.76686        2.15748       -1.96876
C          9.56114        0.73069       -0.27541
C         10.67122       -0.15389       -0.15993
C         10.44569       -1.53714        0.05304
N         11.50589       -2.37133        0.02979
C         12.76224       -1.92409       -0.12495
C         13.04142       -0.57117       -0.13831
N         11.97649        0.28618       -0.19319
C         14.48041       -0.08243       -0.16771
N         15.67416        0.32302       -0.19210
C         13.90442       -2.92688       -0.14003
N         14.85196       -3.75878       -0.15254
C          9.16040       -2.07788        0.24410
C          8.06835       -1.21788        0.12893
C          8.26297        0.17607       -0.12834
N          7.11907        0.90658       -0.21570
S          5.94040       -0.21668        0.05520
N          6.77943       -1.61775        0.28218
C          9.02746       -3.50501        0.65494
S          7.72690       -4.58889        0.34675
C          8.45018       -5.76750        1.30917
C          9.59475       -5.29528        1.85570
N          9.95163       -4.04911        1.49691
C         10.24835       -6.25625        2.80846
C          9.27445       -7.39321        2.66956
C          8.26877       -7.11166        1.79166
S          7.24122       -8.42227        1.60362
C          8.11697       -9.37624        2.73039
C          9.20361       -8.65664        3.24000
C          7.82436      -10.76938        3.11493
C          7.04922      -11.56885        2.36869
C          6.80256      -12.97812        2.72715
C          6.32860      -13.93550        1.82504
C          6.21932      -15.18325        2.42677
C          6.55974      -15.20900        3.75281
S          7.06594      -13.69295        4.25737
C          6.41734      -16.51045        4.39517
C          5.98914      -17.51631        3.57085
Ge         5.71160      -16.90863        1.77596
C          3.89204      -17.03372        1.11103
C          7.00142      -17.64277        0.52199
C          5.85429      -18.75253        4.19379
C          6.18901      -18.68020        5.54973
S          6.65194      -17.09013        5.94894
H         10.66668       14.36994       -2.70965
H          8.99296       13.16521       -1.21095
H          7.88213        9.00527        1.28615
H          4.14395       12.04117        2.09093
H          3.96853       12.48369        0.35223
H          5.01107       13.48366        1.44156
H         13.85029       10.75540       -3.57757
H         15.53230        7.51278       -6.85462
H         13.87957        6.99106       -7.35233
H         14.75154        6.10403       -6.04078
H         11.56950        6.63871       -2.60224
H         10.26702       -5.85574        3.84469
H         11.26617       -6.54370        2.47285
H          9.91787       -9.04218        3.95663
H          8.31359      -11.16564        4.00054
H          6.63150      -11.19921        1.43722
H          6.10043      -13.74142        0.78545
H          3.19309      -16.59797        1.85304
H          3.63824      -18.09944        0.93690
H          3.81603      -16.47601        0.15475
H          8.02043      -17.54084        0.95040
H          6.94791      -17.08530       -0.43512
H          6.78152      -18.71524        0.34623
H          5.52903      -19.65415        3.69256
H          6.15821      -19.51231        6.23997
