158

C         -0.95233       -6.23502       -0.03444
C         -0.49791       -5.47629       -1.07394
C          0.60132       -4.59928       -0.72225
C          1.26799       -3.62485       -1.49492
C          0.74972       -3.31113       -2.84455
C          1.40547       -3.31134       -4.06543
C          0.54692       -3.00705       -5.15967
C         -0.76187       -2.83873       -4.76575
S         -0.88989       -2.82028       -3.06027
C         -1.97401       -2.66455       -5.61802
Cl         1.11850       -2.93163       -6.77075
C          2.44491       -3.01628       -1.03402
C          2.98729       -3.33247        0.22294
C          2.22686       -4.17688        1.11633
C          1.04142       -4.81445        0.59554
S         -0.07151       -5.91747        1.36409
C          2.62523       -4.37416        2.56464
C          2.13865       -5.23375        3.55148
C          2.78601       -5.14805        4.81887
C          3.80096       -4.22956        4.81161
S          3.82140       -3.37891        3.33972
C          4.78867       -3.92028        5.88491
Cl         2.32612       -6.12997        6.14336
C          4.32076       -2.73676        0.30233
C          4.65247       -1.87516       -0.71681
S          3.39008       -1.80613       -1.84197
C          5.86065       -1.08279       -0.82885
C          6.64376       -0.63183        0.21317
C          7.74391        0.21192       -0.18734
C          7.82764        0.30113       -1.57161
S          6.52953       -0.57861       -2.31759
C          8.85501        1.02838       -2.22183
O          8.75411        1.03383       -3.60753
C          9.88274        1.34880       -4.39989
C          9.84420        1.70969       -1.45103
C          9.74258        1.62588       -0.05762
C          8.70062        0.91569        0.57038
O          8.68975        0.85114        1.95997
C          7.50726        1.41379        2.53096
S         11.02257        2.48487        0.72903
C         11.76389        2.95620       -0.73350
C         10.99561        2.52541       -1.79929
C         13.01836        3.69237       -0.80213
C         13.47498        4.49599       -1.82434
C         14.80240        5.05694       -1.61002
C         15.54446        6.00117       -2.35454
C         14.88515        6.65787       -3.50946
C         13.62560        7.23166       -3.58855
C         13.34211        7.78945       -4.86775
C         14.41041        7.68821       -5.73054
S         15.64917        6.72041       -5.05520
C         14.56441        8.26647       -7.09808
Cl        11.84160        8.53149       -5.22220
C         16.85761        6.35164       -1.98142
C         17.54442        5.65291       -0.97685
C         16.80289        4.70354       -0.19330
C         15.41116        4.49773       -0.47697
S         14.18241        3.66034        0.43471
C         17.49373        3.98684        0.93892
C         18.64928        4.30940        1.64636
C         18.97982        3.39917        2.69480
C         18.00280        2.45312        2.87246
S         16.94222        2.45364        1.54029
C         17.81904        1.47747        3.98498
Cl        20.38943        3.57659        3.64711
C         18.95413        6.04554       -1.01047
C         19.24661        7.11030       -1.83607
S         17.82568        7.65615       -2.59015
C         20.52205        7.73040       -2.13365
C         20.96951        8.07072       -3.39278
C         22.26120        8.71126       -3.44723
C         22.77134        8.84412       -2.14805
S         21.68527        8.15538       -0.96863
C         24.02034        9.45643       -1.90708
O         24.43355        9.61324       -0.58755
C         25.65157        8.92211       -0.30492
C         24.79240        9.97555       -2.97178
C         24.30543        9.80446       -4.26190
C         23.05630        9.19698       -4.52336
O         22.75544        9.10048       -5.87622
C         21.44392        8.79402       -6.30342
S         25.40979       10.43768       -5.42977
C         26.53693       10.96669       -4.26024
C         26.05102       10.69238       -2.99443
C         27.80231       11.59645       -4.60525
C         28.82362       11.95114       -3.74719
C         29.96622       12.61800       -4.35665
C         31.13677       13.26137       -3.81910
C         31.23731       13.60048       -2.34231
C         32.31990       13.99259       -1.55665
C         32.02293       14.24017       -0.18392
C         30.71552       13.95973        0.11294
S         29.83596       13.65920       -1.31324
C         30.02643       13.94532        1.43502
Cl        33.21554       14.77837        0.91940
C         32.21004       13.57859       -4.71129
C         32.15006       13.26981       -6.08303
C         30.92700       12.79184       -6.60270
C         29.84811       12.50021       -5.74895
S         28.24492       12.01167       -6.19123
C         30.81432       12.50949       -8.05158
C         30.32521       11.37933       -8.69322
C         30.45154       11.42946      -10.11077
C         31.08909       12.57346      -10.53355
S         31.28848       13.67436       -9.23702
C         31.58797       12.92372      -11.89571
Cl        29.92337       10.14527      -11.11083
C         33.42990       13.48305       -6.72950
C         34.36117       14.07938       -5.92712
S         33.72884       14.38133       -4.39644
H         -1.76777       -6.94650       -0.03624
H         -0.94849       -5.53548       -2.05735
H          2.45971       -3.53466       -4.17662
H         -1.92234       -1.72709       -6.17951
H         -2.89999       -2.66346       -5.03348
H         -2.04587       -3.49068       -6.33537
H          1.34200       -5.94531        3.42265
H          4.32981       -3.99027        6.87624
H          5.20501       -2.91275        5.78512
H          5.61690       -4.63646        5.84474
H          5.01958       -2.93144        1.09986
H          6.41465       -0.85854        1.24635
H          9.69847        0.97296       -5.41135
H         10.79833        0.87061       -4.03908
H          9.98531        2.43457       -4.48005
H          7.79587        2.00970        3.40074
H          6.86452        0.60283        2.89230
H          6.94467        2.05516        1.84361
H         11.29532        2.75106       -2.81104
H         12.87847        4.70351       -2.70437
H         12.93183        7.25964       -2.75698
H         14.02054        7.66815       -7.83494
H         15.61427        8.32391       -7.40530
H         14.16863        9.28836       -7.12649
H         19.25257        5.18494        1.46620
H         18.28153        0.51585        3.74800
H         16.75609        1.31304        4.19742
H         18.26575        1.85604        4.91155
H         19.74241        5.54918       -0.46393
H         20.35372        7.85551       -4.25164
H         25.58724        8.52196        0.71143
H         26.48726        9.62837       -0.32105
H         25.84924        8.08943       -0.98976
H         21.39056        8.98440       -7.37968
H         20.69469        9.43221       -5.82481
H         21.24066        7.72865       -6.16343
H         26.58496       10.97084       -2.09588
H         28.74575       11.73866       -2.69199
H         33.33055       14.11183       -1.90886
H         30.74392       13.95705        2.26236
H         29.42421       13.03696        1.55067
H         29.37212       14.81523        1.54171
H         29.91184       10.52810       -8.16539
H         31.00845       12.42403      -12.67794
H         32.63117       12.60079      -11.99711
H         31.54551       14.00017      -12.08722
H         33.65255       13.23359       -7.75928
H         35.37021       14.37039       -6.18499
