88

C         -3.46958       -1.51325       -1.24889
C         -2.72849       -1.36517       -0.10788
C         -1.35935       -0.93803       -0.32807
C         -0.29039       -0.68341        0.57790
C         -0.48157       -0.83019        2.05743
C          0.39036       -1.29940        3.03632
C         -0.10523       -1.17478        4.36800
C         -1.37651       -0.65497        4.39872
S         -1.91449       -0.25646        2.82997
C         -2.25029       -0.33891        5.56399
Cl         0.84104       -1.59950        5.73038
C          0.96626       -0.24846        0.08783
C          1.19566       -0.03426       -1.28039
C          0.12625       -0.28572       -2.19226
C         -1.12591       -0.74834       -1.70425
S         -2.56581       -1.12412       -2.61465
C          0.30562       -0.04497       -3.66272
C         -0.18711       -0.74176       -4.76252
C          0.18848       -0.18721       -6.02355
C          1.02952        0.89024       -5.88325
S          1.15046        1.34844       -4.24346
C          1.74639        1.68966       -6.91899
Cl        -0.35933       -0.84831       -7.50480
C          2.55437        0.44452       -1.47942
C          3.29393        0.61365       -0.33156
S          2.38826        0.13038        1.00592
C          4.63603        1.13768       -0.22906
C          5.60862        1.12689       -1.20467
C          6.80966        1.83063       -0.83570
C          7.96414        1.93162       -1.78380
C          6.70902        2.37532        0.44564
S          5.22115        1.90679        1.17568
C          7.64906        3.20787        1.23631
C          7.21906        4.22484        2.10716
F          5.91267        4.49917        2.25390
C          8.12082        5.00462        2.84646
F          7.61784        5.94012        3.66831
C          9.50321        4.83434        2.73148
C          9.93087        3.81274        1.87598
C          9.03047        3.01735        1.16090
F          9.54987        2.03354        0.41349
F         11.23829        3.54050        1.73017
C         10.45340        5.66641        3.49364
C         10.31894        6.24683        4.73974
C         11.50014        6.93757        5.18633
C         11.58605        7.64718        6.50044
C         12.52907        6.84426        4.25645
S         11.96181        6.10533        2.81177
C         13.84874        7.41058        4.31682
C         14.95905        6.91557        3.78272
C         16.10563        7.86355        3.57744
O         16.32301        8.88642        4.18703
C         16.85056        7.33309        2.42597
C         16.31472        6.09335        2.02152
C         15.31366        5.68732        3.04189
C         15.06624        4.41561        3.43546
C         15.56962        3.28371        2.72284
N         15.98609        2.38131        2.12668
C         14.44245        4.13189        4.67517
N         13.97953        3.90354        5.71724
C         16.77406        5.50015        0.85544
C         17.80764        6.12937        0.15803
C         18.37057        7.32989        0.60568
C         17.88055        7.94933        1.74520
F         18.39248        9.11434        2.15843
F         19.37677        7.89182       -0.08152
F         18.26804        5.56246       -0.96609
H         -4.50361       -1.82205       -1.32731
H         -3.17923       -1.55537        0.85550
H          1.38541       -1.67343        2.83104
H         -1.91197       -0.83469        6.47883
H         -3.28515       -0.65148        5.38535
H         -2.24209        0.74141        5.74153
H         -0.81359       -1.62121       -4.69115
H          1.61859        1.27218       -7.92254
H          2.82334        1.71148       -6.71369
H          1.37675        2.71944       -6.93288
H          2.97405        0.71208       -2.43772
H          5.47244        0.64909       -2.16852
H          7.64261        1.74573       -2.81440
H          8.71708        1.17434       -1.54238
H          8.42235        2.92394       -1.75626
H          9.41579        6.17140        5.33683
H         10.63706        7.59417        7.04382
H         11.82332        8.70535        6.34862
H         12.36269        7.19872        7.12786
H         13.89320        8.39989        4.78467
H         16.36767        4.57725        0.45487
