133

C          4.40433       15.96126       -3.54593
C          5.72973       15.61874       -3.51983
C          5.99535       14.28095       -3.02649
C          7.20950       13.59844       -2.71833
C          8.53522       14.28576       -2.85152
C          9.78218       13.77099       -3.19819
C         10.79645       14.75738       -3.36158
C         10.29289       16.02655       -3.21581
S          8.74136       15.96782       -2.50433
C         10.90704       17.33521       -3.57548
Cl        12.39560       14.35023       -3.81093
C          7.16865       12.23303       -2.34545
C          5.97910       11.49150       -2.38997
C          4.75803       12.18959       -2.60682
C          4.78232       13.58084       -2.88063
S          3.43660       14.67685       -3.04493
C          3.44828       11.46647       -2.53683
C          2.26468       11.67514       -3.23732
C          1.20585       10.79347       -2.87045
C          1.61751        9.84309       -1.96758
S          3.18318       10.20010       -1.38739
C          0.89770        8.64039       -1.45782
Cl        -0.35873       10.92345       -3.55242
C          6.28195       10.07904       -2.25115
C          7.58434        9.79790       -1.90636
S          8.45164       11.24072       -1.72761
C          8.24441        8.52543       -1.67695
N          9.55648        8.39076       -2.00381
N         10.28193        7.16448       -1.87965
C          9.73035        6.01370       -1.42433
C          8.37123        6.07234       -1.04317
C          7.60233        7.36960       -1.17440
N          6.32280        7.25115       -0.76960
S          6.10557        5.68896       -0.27261
N          7.61521        5.07407       -0.54645
C         10.53081        4.79977       -1.38032
C         10.13804        3.46266       -1.52716
C         11.23866        2.59170       -1.41195
C         12.39848        3.28819       -1.17499
S         12.24111        4.93599       -1.10811
C         13.46123        2.37464       -1.07900
C         12.98775        1.10119       -1.26466
C         11.53905        1.15971       -1.47045
C         10.70530        0.13389       -1.66901
C          9.32071        0.34529       -1.87118
N          8.18916        0.52090       -2.04172
C         11.14183       -1.21807       -1.69689
N         11.49962       -2.31284       -1.71273
C         14.02878        0.14716       -1.23850
C         15.26760        0.76948       -1.07260
S         15.08622        2.48699       -0.81276
C         16.62225        0.19425       -1.07943
C         17.71322        0.95741       -1.52398
C         19.01229        0.45802       -1.48505
C         19.25824       -0.82375       -0.98995
C         18.17402       -1.62725       -0.61736
C         16.86525       -1.12236       -0.66387
C         20.65980       -1.32084       -0.94913
C         21.16816       -2.05972       -2.14211
C         21.04847       -3.45523       -2.19293
C         21.44562       -4.16023       -3.33047
C         21.96593       -3.47769       -4.42873
C         22.08555       -2.08942       -4.39152
C         21.68586       -1.38098       -3.25392
C         21.46105       -1.07129        0.13150
C         20.95437       -0.38451        1.35692
C         20.37047       -1.13287        2.38808
C         19.94039       -0.50917        3.56308
C         20.08915        0.86776        3.71870
C         20.68874        1.61896        2.70944
C         21.13117        0.99452        1.53880
C         22.89908       -1.44517        0.09081
C         23.82754       -0.51251       -0.37943
C         25.18253       -0.83263       -0.42935
C         25.64170       -2.09831       -0.03241
C         24.70906       -3.01132        0.48130
C         23.34844       -2.68631        0.54930
C         27.05894       -2.46386       -0.16317
C         27.81757       -3.33242        0.58399
C         29.20721       -3.43285        0.18699
C         29.43264       -2.67614       -0.97585
S         28.00324       -1.81439       -1.40385
C         30.69379       -2.65871       -1.61899
O         31.01311       -1.89248       -2.74193
C         30.01242       -1.70013       -3.73653
C         31.77717       -3.37215       -1.05638
C         31.56257       -4.10350        0.11002
C         30.30271       -4.14830        0.73923
O         30.21097       -4.98773        1.84734
C         29.36952       -4.57685        2.91523
S         33.01964       -4.89419        0.62475
C         33.92248       -4.26860       -0.67155
C         33.15065       -3.48293       -1.49244
H          3.97476       16.91455       -3.82324
H          6.47854       16.34057       -3.81165
H          9.97905       12.72495       -3.38839
H         11.99923       17.27953       -3.59637
H         10.62235       18.13037       -2.88080
H         10.57264       17.62531       -4.57961
H          2.13395       12.44183       -3.98936
H         -0.17870        8.69979       -1.64483
H          1.04037        8.51256       -0.38043
H          1.27163        7.74165       -1.96265
H          5.55584        9.28874       -2.39431
H          9.10999        3.17354       -1.71368
H         13.92431       -0.91986       -1.38551
H         17.57083        1.96318       -1.91303
H         19.82441        1.07933       -1.85042
H         18.33829       -2.65025       -0.29176
H         16.04667       -1.76999       -0.35776
H         20.62854       -3.99736       -1.34985
H         21.33861       -5.24108       -3.36361
H         22.27003       -4.02771       -5.31573
H         22.48024       -1.55772       -5.25361
H         21.76837       -0.29742       -3.24887
H         20.25853       -2.20885        2.28695
H         19.48987       -1.09817        4.35763
H         19.74192        1.35430        4.62697
H         20.81368        2.69156        2.83526
H         21.62164        1.59237        0.77575
H         23.50397        0.46937       -0.71280
H         25.87193       -0.07396       -0.79043
H         25.02261       -3.99815        0.81583
H         22.64523       -3.41075        0.95079
H         27.37297       -3.84858        1.41599
H         30.49568       -1.31589       -4.63980
H         29.31375       -0.91493       -3.44024
H         29.49845       -2.63176       -3.99690
H         29.67978       -5.10443        3.82173
H         28.34723       -4.90850        2.72838
H         29.42371       -3.50068        3.11026
H         34.97379       -4.50507       -0.77464
H         33.54274       -2.99422       -2.37761
