122

C         -4.86415        2.01530       -3.59768
C         -4.35909        2.29334       -2.35687
C         -2.90834        2.30099       -2.25592
C         -2.01130        2.61994       -1.17594
C         -2.56907        3.16138        0.15078
C         -3.86121        3.46736        0.58316
C         -3.97420        3.94490        1.93552
C         -2.75741        4.04239        2.54727
S         -1.54277        3.54147        1.50007
C         -2.38496        4.46728        3.92393
Cl        -5.48189        4.34179        2.63523
C         -0.60137        2.41580       -1.39215
C         -0.06692        1.89183       -2.58576
C         -0.96153        1.65571       -3.66491
C         -2.36107        1.86982       -3.48784
S         -3.63347        1.64004       -4.66698
C         -0.40155        1.17171       -4.97966
C          0.64648        0.29663       -5.25443
C          0.90777        0.10969       -6.64829
C          0.03303        0.81238       -7.44067
S         -0.98986        1.78422       -6.48953
C         -0.07415        0.85976       -8.92910
Cl         2.18253       -0.88428       -7.21419
C          1.37476        1.69721       -2.45651
C          1.94323        2.08242       -1.25973
S          0.73204        2.76995       -0.32496
C          3.31364        2.03137       -0.82634
C          3.83795        1.97358        0.45577
O          3.05198        1.92351        1.57530
C          3.82683        1.56160        2.72731
C          5.14645        2.34645        2.78131
C          5.94142        2.00131        4.03432
O          5.97691        2.04844        1.64455
C          5.26053        2.03003        0.48918
C          5.83369        2.05199       -0.76242
S          4.59241        2.05572       -1.96695
C          7.24480        2.07647       -1.14969
C          8.34308        1.53654       -0.51012
O          8.25777        0.81890        0.64529
C          9.54957        0.66539        1.25258
C         10.60320        0.26106        0.21173
C         11.95368        0.01023        0.85554
O         10.77335        1.30581       -0.76443
C          9.57420        1.76162       -1.20420
C          9.43345        2.51602       -2.35763
S          7.76527        2.88367       -2.58325
C         10.44334        2.95223       -3.30883
C         10.44905        4.07249       -4.11642
O          9.45017        4.99599       -4.12626
C          9.53002        5.83072       -5.29470
C         10.96486        6.32294       -5.52345
C         11.04949        7.25406       -6.72352
O         11.84057        5.21665       -5.78523
C         11.62059        4.19336       -4.92195
C         12.50856        3.14782       -4.77475
S         11.87343        2.02935       -3.62053
C         13.78857        2.93757       -5.42929
C         14.43150        1.74235       -5.68774
C         15.71082        1.81865       -6.37269
C         16.60984        0.81398       -6.88212
C         16.19978       -0.65958       -6.86166
C         15.03697       -1.30899       -6.42813
C         15.02664       -2.73166       -6.58180
C         16.17802       -3.19201       -7.15540
S         17.22725       -1.91487       -7.46516
C         16.60126       -4.57406       -7.50267
Cl        13.69946       -3.69102       -6.09116
C         17.88512        1.24797       -7.41533
C         18.28094        2.60037       -7.40239
C         17.34105        3.57504       -6.98022
C         16.06350        3.17598       -6.49956
S         14.74043        4.19543       -6.03287
C         17.70294        5.03460       -7.01170
C         17.35850        6.07415       -6.15582
C         17.95885        7.32540       -6.48403
C         18.83625        7.21267       -7.53536
S         18.64276        5.70495       -8.30921
C         19.80347        8.21818       -8.06305
Cl        17.64328        8.75418       -5.59823
C         19.67255        2.73089       -7.82879
C         20.23737        1.59086       -8.30932
S         19.16320        0.31454       -8.16485
H         -5.90237        1.98766       -3.90278
H         -5.06382        2.47798       -1.56910
H         -4.75747        3.36637        0.00044
H         -3.15387        5.08964        4.38165
H         -1.45212        5.05110        3.91371
H         -2.21971        3.58901        4.55764
H          1.23440       -0.20267       -4.49608
H          0.90730        1.03683       -9.37939
H         -0.73782        1.66386       -9.26622
H         -0.47067       -0.08302       -9.32256
H          1.99838        1.28142       -3.25073
H          4.00212        0.47856        2.69504
H          3.21746        1.77617        3.61198
H          4.94288        3.42512        2.77078
H          6.20428        0.93781        4.05321
H          5.38027        2.24016        4.94309
H          6.88495        2.55758        4.05107
H          9.45823       -0.10389        2.02648
H          9.81549        1.61059        1.74452
H         10.28246       -0.64456       -0.31996
H         12.33284        0.91228        1.34817
H         12.69591       -0.26496        0.09896
H         11.89999       -0.79465        1.59646
H          8.85186        6.67657       -5.13942
H          9.16327        5.25401       -6.15390
H         11.33688        6.84280       -4.63048
H         10.74953        6.73595       -7.64107
H         12.08285        7.58462       -6.87531
H         10.41541        8.13512       -6.59064
H         13.94667        0.84142       -5.35896
H         14.17691       -0.83798       -6.00507
H         16.95879       -5.09342       -6.60819
H         17.41515       -4.57717       -8.23777
H         15.77219       -5.13893       -7.93601
H         16.70143        5.96489       -5.30175
H         19.28600        8.97418       -8.65949
H         20.57907        7.75632       -8.68396
H         20.31905        8.72329       -7.23748
H         20.23938        3.65241       -7.83349
H         21.21774        1.45132       -8.73565
