96

C          2.07390       -0.64220       -5.68694
C          0.96298       -1.35391       -5.30463
N         -0.29824       -1.16711       -5.96967
O         -0.77954       -0.02876       -5.93834
O         -0.78624       -2.16100       -6.51958
C          1.21321       -2.25404       -4.19824
C          0.10814       -3.05841       -3.57628
C          2.56532       -2.24088       -3.83142
S          3.44343       -1.10314       -4.79731
C          3.27096       -3.01548       -2.81553
S          2.79271       -4.60987       -2.36494
C          3.99268       -4.78349       -1.12832
C          4.84338       -3.70928       -1.17502
C          4.37716       -2.73797       -2.07166
C          5.18933       -1.58554       -1.93014
C          6.29214       -1.76095       -1.08324
C          7.31202       -0.76747       -0.80938
O          7.97149       -0.65460        0.21525
O          7.39598        0.07507       -1.88142
C          8.27799        1.17557       -1.68991
S          6.37254       -3.30872       -0.27566
C          3.93928       -5.84197       -0.14572
C          4.40652       -5.83939        1.15430
C          3.73803       -6.79996        2.00459
C          3.71239       -6.98960        3.40699
C          4.90774       -6.83482        4.27086
C          5.17683       -7.50417        5.46124
C          6.48341       -7.27528        5.97360
C          7.21853       -6.45274        5.15439
S          6.28262       -5.90394        3.83532
C          8.64741       -6.04222        5.26157
Cl         7.03224       -8.02479        7.41063
C          2.48536       -7.39121        3.97273
C          1.56552       -8.12591        3.21194
C          1.96001       -8.46912        1.88962
C          2.87619       -7.60360        1.25049
S          3.13102       -7.31977       -0.43581
C          1.44927       -9.65843        1.16167
C          2.11509      -10.40557        0.19366
C          1.42269      -11.57910       -0.21121
C          0.25271      -11.75006        0.48783
S         -0.05863      -10.40910        1.49298
C         -0.68706      -12.90628        0.45618
Cl         2.05787      -12.65383       -1.38033
C          0.36249       -8.33953        3.97765
C          0.31747       -7.63170        5.16227
S          1.86565       -7.05562        5.55397
C         -0.84613       -7.36081        5.97637
C         -1.07960       -6.26055        6.80959
C         -2.38665       -6.29705        7.34770
C         -3.07549       -7.40429        6.90940
S         -2.22602       -8.41696        5.91283
C         -4.37575       -7.38191        7.44682
C         -4.51227       -6.27048        8.24367
C         -3.26116       -5.50651        8.21910
C         -2.98730       -4.34171        8.83758
C         -3.95073       -3.68178        9.64771
N         -4.74291       -3.14632       10.30576
C         -1.72151       -3.70242        8.70066
N         -0.69615       -3.18261        8.58297
C         -5.79837       -6.21527        8.82564
C         -6.58944       -7.30246        8.43114
S         -5.73426       -8.31803        7.30626
C         -7.96219       -7.58626        8.82006
C         -8.63857       -8.79408        8.96752
N         -8.01338      -10.07752        8.78303
O         -7.05939      -10.34742        9.52241
O         -8.50838      -10.81646        7.92287
C        -10.02567       -8.63606        9.35425
C        -11.00278       -9.73888        9.61680
C        -10.33952       -7.29914        9.49282
S         -9.02642       -6.27015        9.16051
H          2.14639        0.11076       -6.46160
H         -0.83230       -2.49596       -3.55963
H          0.31964       -3.31861       -2.53732
H         -0.06223       -3.96841       -4.15953
H          5.00714       -0.63342       -2.41088
H          8.33593        1.72611       -2.63242
H          9.28210        0.83621       -1.41812
H          7.86791        1.83894       -0.92405
H          4.99953       -5.02987        1.55461
H          4.48223       -8.18709        5.93462
H          9.04324       -6.21334        6.26718
H          8.77493       -4.97940        5.03365
H          9.25683       -6.62257        4.55969
H          3.09588      -10.15289       -0.18919
H         -1.14636      -13.00133       -0.53213
H         -1.48692      -12.81368        1.19797
H         -0.14545      -13.83370        0.67530
H         -0.52142       -8.82349        3.58761
H         -0.34648       -5.47703        6.96712
H         -6.15510       -5.44730        9.50190
H        -10.73410      -10.66811        9.10928
H        -12.00274       -9.45765        9.26964
H        -11.05589       -9.94130       10.69145
H        -11.29161       -6.87318        9.78369
