161

C         -0.11531       -4.19740       -5.32699
C          1.24747       -4.30389       -5.25030
C          1.89453       -3.25595       -4.48026
C          3.26619       -3.00181       -4.18595
C          4.34845       -3.87224       -4.74749
C          5.60935       -3.53340       -5.23068
C          6.41238       -4.65272       -5.60109
C          5.74247       -5.84230       -5.44567
S          4.19721       -5.59040       -4.76594
C          6.19726       -7.23770       -5.70800
Cl         8.02776       -4.46967       -6.13904
C          3.62460       -1.91990       -3.34085
C          2.65848       -1.07560       -2.77038
C          1.28454       -1.30649       -3.08716
C          0.92729       -2.38258       -3.94537
S         -0.66701       -2.85574       -4.47424
C          0.20672       -0.43890       -2.50165
C         -0.99263        0.01335       -3.04646
C         -1.79308        0.78381       -2.14780
C         -1.19191        0.93690       -0.92211
S          0.27852        0.07698       -0.85409
C         -1.66775        1.64303        0.30225
Cl        -3.33122        1.38930       -2.59552
C          3.31158       -0.08940       -1.92593
C          4.68600       -0.14984       -1.88932
S          5.21885       -1.45347       -2.82187
C          5.63093        0.70512       -1.14696
C          6.88226        1.06115       -1.68766
C          7.74710        1.87301       -0.94929
C          7.37645        2.31481        0.33388
C          6.14890        1.98815        0.87798
C          5.27710        1.18693        0.13191
C          8.45692        3.09115        0.90176
C          9.52018        3.14742       -0.01928
C          9.17191        2.36157       -1.30444
C          9.17353        3.36433       -2.49081
C          8.87045        2.81438       -3.87917
C         10.08874        1.12017       -1.48080
C         11.58588        1.38226       -1.60858
C         10.66814        3.87892        0.27442
C         10.77098        4.52729        1.51309
C          9.71069        4.42449        2.43483
C          8.54251        3.72025        2.12702
C         12.00464        5.25951        1.82593
C         12.04737        6.31923        2.64747
C         13.24601        7.04551        2.96156
C         13.98232        7.68308        2.02739
C         15.15288        8.45591        2.44344
C         15.87266        9.18864        1.55846
C         17.02258        9.94527        1.95303
N         17.94217       10.54875        2.28849
C         15.50955        9.29324        0.17769
N         15.21234        9.37883       -0.94297
C         15.53095        8.36309        3.87041
C         14.72013        7.71301        4.71882
O         13.53822        7.09389        4.31386
C         15.01873        7.56609        6.14548
C         14.57731        8.52664        7.06998
C         14.89706        8.35081        8.41215
C         15.65325        7.23373        8.84371
C         16.08473        6.28196        7.93786
C         15.76591        6.45292        6.58537
C         15.86893        7.32523       10.27271
C         15.26359        8.50175       10.75090
C         14.57755        9.25407        9.60820
C         13.05373        9.36701        9.89850
C         12.30533        8.04318       10.07276
C         15.19240       10.67332        9.45146
C         16.68582       10.71582        9.11856
C         15.32218        8.86108       12.08970
C         15.99333        8.02190       12.98207
C         16.61201        6.84944       12.49837
C         16.54558        6.49144       11.14431
C         16.10575        8.35250       14.40884
C         15.16642        9.02426       15.09507
C         15.30356        9.27255       16.48756
C         15.94030        8.53522       17.45952
C         15.85941        9.07564       18.79759
C         16.41762        8.62701       20.02714
C         17.31673        7.42657       20.01640
C         18.24267        6.99944       19.06911
C         18.93766        5.80356       19.43100
C         18.57164        5.34807       20.67533
S         17.24443        6.23965       21.27313
C         19.12178        4.22649       21.49303
Cl        20.10563        5.08779       18.40367
C         16.13103        9.32939       21.22795
C         15.23118       10.41131       21.24880
C         14.71186       10.87951       20.01026
C         15.04716       10.22014       18.80430
S         14.59450       10.64728       17.18289
C         13.80475       12.06584       19.97798
C         12.66512       12.30295       19.21830
C         12.05517       13.56723       19.47073
C         12.68579       14.25158       20.48311
S         14.14622       13.47630       20.91766
C         12.28662       15.51110       21.17621
Cl        10.66743       14.08968       18.61539
C         14.98261       10.83240       22.61456
C         15.76284       10.20363       23.54705
S         16.80120        9.09291       22.82109
H         -0.80148       -4.85701       -5.84209
H          1.74762       -5.13083       -5.73287
H          5.98297       -2.51850       -5.28102
H          7.13273       -7.26733       -6.27480
H          5.44965       -7.79790       -6.28066
H          6.36312       -7.75501       -4.75752
H         -1.32604       -0.21398       -4.05050
H         -2.55775        2.25050        0.11294
H         -0.89484        2.30845        0.70362
H         -1.92087        0.90739        1.07277
H          2.79586        0.66854       -1.35571
H          7.17985        0.70589       -2.66567
H          5.85988        2.32915        1.86706
H          4.31990        0.92070        0.57551
H         10.15187        3.85776       -2.55304
H          8.45173        4.16846       -2.28853
H          9.61899        2.08501       -4.19932
H          8.88160        3.63679       -4.60417
H          7.88046        2.36023       -3.94033
H          9.77007        0.55225       -2.36365
H          9.95318        0.43758       -0.62903
H         11.81034        2.13457       -2.36879
H         12.10395        0.45798       -1.88557
H         12.01814        1.69993       -0.65490
H         11.47170        3.95522       -0.45165
H          9.78025        4.89269        3.41328
H          7.73339        3.67587        2.84498
H         12.91140        4.89608        1.34527
H         11.15426        6.68992        3.14274
H         13.69040        7.62664        0.98491
H         16.45321        8.80296        4.23555
H         14.00641        9.39072        6.74439
H         16.66469        5.42290        8.25769
H         16.10663        5.71043        5.86743
H         12.56224        9.93073        9.09606
H         12.90342        9.95110       10.81736
H         12.26905        7.47924        9.13621
H         11.27274        8.23817       10.38135
H         12.75656        7.40888       10.84199
H         15.04152       11.23987       10.38024
H         14.65764       11.22532        8.66821
H         17.28046       10.08507        9.78585
H         17.06088       11.73984        9.21763
H         16.87047       10.39776        8.08794
H         14.85481        9.78300       12.41937
H         17.14789        6.19451       13.18307
H         17.01967        5.57915       10.79842
H         17.01421        8.00481       14.89299
H         14.26352        9.38244       14.60557
H         16.44037        7.60965       17.20996
H         18.44049        7.52129       18.14164
H         19.80144        3.59074       20.91775
H         18.31806        3.58939       21.87595
H         19.68310        4.61904       22.34959
H         12.26619       11.60123       18.49713
H         11.48019       16.03037       20.64965
H         13.12849       16.20490       21.26165
H         11.92496       15.28305       22.18607
H         14.27426       11.59379       22.91166
H         15.78154       10.36818       24.61590
