132

C         -2.62166        0.61725       -5.28887
C         -1.70863       -0.13191       -4.59528
C         -0.52641        0.59974       -4.17772
C          0.59453        0.21516       -3.38613
C          0.64552       -1.14587       -2.76052
C          1.71942       -2.01295       -2.59059
C          1.38801       -3.22700       -1.92268
C          0.04014       -3.32994       -1.67533
S         -0.74598       -1.84794       -2.00314
C         -0.72322       -4.49642       -1.14120
Cl         2.56618       -4.40841       -1.54063
C          1.67200        1.12031       -3.19259
C          1.65702        2.41319       -3.73868
C          0.52104        2.80862       -4.50500
C         -0.55196        1.90306       -4.70781
S         -2.02417        2.16073       -5.60655
C          0.44759        4.18001       -5.10106
C         -0.62609        5.05681       -5.20629
C         -0.31055        6.28621       -5.85602
C          1.01995        6.36713       -6.18649
S          1.81187        4.88169       -5.89886
C          1.77506        7.51716       -6.75864
Cl        -1.48413        7.50013       -6.13493
C          2.86849        3.12670       -3.36032
C          3.79161        2.39873       -2.64408
S          3.13200        0.87579       -2.28519
C          5.10566        2.82516       -2.17438
S          5.71957        2.23159       -0.66943
C          7.20788        3.11018       -0.75471
C          7.20314        3.89606       -1.89031
C          6.03494        3.69403       -2.73570
C          5.89550        4.30210       -3.99886
C          6.95554        5.19009       -4.33368
S          6.80392        5.97075       -5.95874
C          5.74437        7.38388       -5.51858
C          5.34632        8.15066       -6.76843
C          8.09344        5.41625       -3.47319
S          9.41675        6.57537       -3.90717
C          9.38038        7.69385       -2.45646
C          8.09338        8.49801       -2.41439
C          8.27239        4.72530       -2.25151
C          8.17812        2.82246        0.26101
C          9.06054        3.70353        0.76962
C         10.09738        3.29576        1.67311
C         10.72526        4.02520        2.66783
C         11.67097        3.26559        3.46087
C         11.82082        1.98371        2.95731
S         10.83257        1.74935        1.56240
C         12.68065        1.02649        3.54289
O         12.70446       -0.19117        2.87156
C         13.45343       -1.27635        3.37831
C         13.38731        1.35327        4.73480
C         13.16834        2.62660        5.28613
C         12.38324        3.60805        4.63229
O         12.10615        4.87067        5.15706
C         13.20016        5.60453        5.70305
S         13.87458        2.70649        6.85774
C         14.77578        1.26794        6.68383
C         14.34370        0.62562        5.54662
C         15.77417        0.89552        7.70050
C         16.69730        1.79093        8.26313
C         17.57539        1.42767        9.35138
N         18.36303        2.38900        9.88777
C         18.35954        3.63119        9.35437
C         17.56235        3.94384        8.29156
N         16.73407        3.04345        7.73273
F         17.56905        5.18267        7.76480
F         19.17301        4.55173        9.89118
C         17.63487        0.10846        9.88518
C         16.77110       -0.85041        9.27295
C         15.81398       -0.44779        8.17346
N         15.05571       -1.47567        7.74473
S         15.51197       -2.81549        8.59259
N         16.67827       -2.16040        9.56126
C         18.50639       -0.31241       11.02596
C         18.32814       -1.31442       11.96734
C         19.33075       -1.35796       13.01501
C         20.26283       -0.34772       12.84607
S         20.01525        0.44851       11.33448
C         21.26534       -0.07610       13.80211
O         22.05246        1.02934       13.49715
C         23.01322        1.49392       14.42388
C         21.39150       -0.91069       14.95164
C         20.50440       -2.00082       15.07019
C         19.45991       -2.21019       14.13250
O         18.55986       -3.27289       14.15583
C         18.10299       -3.72350       15.42399
S         20.92408       -2.97338       16.45046
C         22.09768       -1.89840       16.99179
C         22.28647       -0.88379       16.09141
H         -3.59382        0.30911       -5.65055
H         -1.90894       -1.17098       -4.37280
H          2.72689       -1.79627       -2.91982
H         -0.32471       -5.43502       -1.54507
H         -1.78156       -4.45697       -1.42063
H         -0.65233       -4.53830       -0.05047
H         -1.62255        4.83715       -4.84368
H          1.16386        8.09467       -7.45813
H          2.65455        7.17592       -7.30745
H          2.10618        8.18996       -5.95881
H          3.05955        4.15731       -3.62028
H          5.09061        4.09964       -4.69168
H          6.28680        8.04796       -4.84185
H          4.84675        7.02582       -5.00479
H          6.21627        8.54172       -7.30512
H          4.71345        9.00298       -6.49673
H          4.77947        7.52117       -7.46053
H         10.23179        8.37641       -2.54532
H          9.51824        7.13821       -1.52330
H          7.90869        9.00487       -3.36658
H          8.15414        9.26709       -1.63770
H          7.23128        7.86502       -2.18017
H          9.17389        4.84328       -1.66914
H          8.19014        1.79250        0.61485
H          9.01765        4.75715        0.51673
H         10.47356        5.05612        2.88984
H         13.11610       -1.56503        4.37818
H         14.52304       -1.05451        3.33710
H         13.28629       -2.13727        2.72374
H         12.88568        6.64915        5.79965
H         14.09152        5.57326        5.06818
H         13.42491        5.28327        6.72180
H         14.72425       -0.35775        5.31387
H         17.48002       -1.98905       11.96968
H         23.39691        2.45471       14.07534
H         23.86034        0.80043       14.46565
H         22.56938        1.67932       15.40688
H         17.12740       -4.19771       15.28625
H         17.97718       -2.90786       16.14381
H         18.77000       -4.50349       15.80258
H         22.62985       -2.06438       17.91857
H         23.05405       -0.15261       16.28432
