125

C          2.31328       -0.40738       -9.52732
C          3.09425        0.70996       -9.66367
C          3.74542        1.12355       -8.43812
C          4.52433        2.26679       -8.12617
C          4.70165        3.34630       -9.13384
C          5.85182        4.03705       -9.49063
C          5.63602        5.02604      -10.49262
C          4.33836        5.02722      -10.95040
S          3.35896        3.98665      -10.00873
C          3.74210        5.78702      -12.08862
Cl         6.89987        6.03395      -11.05584
C          5.14455        2.38818       -6.86261
C          5.07565        1.36482       -5.91037
C          4.24709        0.24644       -6.19625
C          3.55423        0.16335       -7.43046
S          2.35982       -0.99787       -7.94500
C          4.07583       -0.79317       -5.14786
C          3.90934       -0.64029       -3.77822
C          3.73595       -1.87330       -3.08380
C          3.69689       -2.94888       -3.94065
S          4.13749       -2.47713       -5.52406
C          3.34338       -4.37056       -3.65702
Cl         3.53542       -1.93510       -1.38603
C          5.92939        1.67933       -4.77440
C          6.51449        2.93008       -4.81790
S          6.01143        3.73600       -6.22241
C          7.36931        3.56115       -3.82544
C          8.44064        4.43647       -3.99124
C          9.03473        4.95040       -5.27729
C          8.44823        6.28979       -5.70504
C          8.99212        4.83356       -2.72284
C          8.34956        4.29263       -1.62941
S          7.07359        3.27204       -2.14947
C          8.57286        4.49566       -0.23440
C          9.74998        4.94237        0.24153
C          9.97674        5.26264        1.61931
C         10.94035        6.09659        2.15850
C         10.81993        6.24857        3.59035
N         11.60222        7.09877        4.31418
C         12.50698        7.76356        3.54686
C         13.31980        8.77484        4.26963
O         13.09177        9.12115        5.41745
C         14.45168        9.37613        3.54684
C         14.68583        9.10803        2.26660
C         13.81064        8.22128        1.47652
O         14.05587        8.02713        0.29419
C         12.67653        7.55690        2.17875
N         11.89054        6.73379        1.40755
C          9.87185        5.40889        4.15003
S          9.01842        4.60949        2.89546
C          9.59153        5.17610        5.56139
C          9.15926        4.02983        6.22870
C          8.74234        2.69930        5.66093
C          9.92273        1.76555        5.44764
C          9.23707        4.20605        7.65828
C          9.69801        5.44325        8.05066
S          9.82570        6.46202        6.68646
C         10.02625        5.97155        9.33067
C         10.10838        5.19915       10.42617
C         10.42679        5.74078       11.70606
C         10.65395        7.03995       12.10146
C         10.98276        7.21151       13.49693
C         11.26728        8.38071       14.24476
C         11.19391        9.69408       13.55157
C         11.71846       10.08175       12.32621
C         11.40161       11.42627       11.97109
C         10.71743       12.07971       12.97033
S         10.26170       10.98988       14.20825
C         10.32328       13.51513       13.07575
Cl        11.87919       12.10334       10.47316
C         11.62584        8.29114       15.60771
C         11.67129        7.04954       16.26581
C         11.31159        5.88292       15.53199
C         10.98829        5.97647       14.15743
S         10.52505        4.71430       13.06063
C         11.30004        4.55336       16.20705
C         11.75561        3.31923       15.76107
C         11.60909        2.27216       16.71779
C         11.10198        2.72967       17.91229
S         10.56790        4.34765       17.75996
C         10.96746        2.02211       19.21923
Cl        12.09217        0.66474       16.38184
C         12.11514        7.22677       17.63415
C         12.27848        8.53508       18.00635
S         12.08224        9.57414       16.69132
H          1.70389       -0.88595      -10.28202
H          3.16813        1.23131      -10.60934
H          6.82172        3.85137       -9.04616
H          4.26819        6.73100      -12.26152
H          2.68753        6.02443      -11.91698
H          3.81215        5.19228      -13.00699
H          3.89363        0.32293       -3.28351
H          3.58561       -4.64859       -2.62692
H          3.86664       -5.06668       -4.32013
H          2.26526       -4.51562       -3.79726
H          6.09271        1.00292       -3.94448
H          8.93473        4.20948       -6.07637
H         10.11572        5.08414       -5.13358
H          7.36929        6.23611       -5.86968
H          8.91345        6.62476       -6.63715
H          8.61821        7.05905       -4.94414
H          9.82354        5.52503       -2.63479
H          7.72969        4.31139        0.42660
H         10.58320        5.12957       -0.43329
H         15.08333       10.05389        4.12187
H         15.52960        9.54536        1.73118
H          8.17116        2.81375        4.73816
H          8.04391        2.22183        6.36119
H         10.64483        2.18618        4.74090
H          9.57790        0.80382        5.05560
H         10.44756        1.57681        6.39071
H          9.00589        3.41230        8.35870
H         10.23752        7.03640        9.38197
H          9.93454        4.12827       10.36169
H         10.59293        7.86288       11.40307
H         12.29897        9.42500       11.68963
H         10.76379       14.11801       12.27521
H         10.67221       13.94053       14.02404
H          9.23623       13.62771       13.02385
H         12.19857        3.15884       14.78659
H         10.98654        0.93484       19.09689
H         10.03550        2.28195       19.73032
H         11.80346        2.29497       19.87427
H         12.27713        6.42570       18.34242
H         12.53926        8.91773       18.98365
