160

C         11.52732      -14.62605       -3.98503
C         11.86820      -14.24670       -5.25585
C         11.40735      -12.92266       -5.62180
C         11.47655      -12.20958       -6.84703
C         12.03238      -12.85947       -8.07025
C         12.87776      -12.34135       -9.04496
C         13.16216      -13.25279      -10.10198
C         12.58862      -14.48480       -9.89429
S         11.57002      -14.46103       -8.52195
C         12.73269      -15.72865      -10.71064
Cl        14.13158      -12.81880      -11.44461
C         11.00947      -10.87761       -6.92279
C         10.52712      -10.19886       -5.79449
C         10.43218      -10.91640       -4.56903
C         10.82420      -12.28101       -4.51338
S         10.64502      -13.41876       -3.20348
C          9.87602      -10.22336       -3.36730
C          8.82744       -9.31628       -3.26305
C          8.56618       -8.88924       -1.92634
C          9.36684       -9.53025       -1.01024
S         10.59294      -10.41557       -1.80307
C          9.29350       -9.50008        0.48121
Cl         7.34490       -7.74964       -1.55286
C         10.22066       -8.82025       -6.13587
C         10.35291       -8.51734       -7.47216
S         10.89574       -9.87403       -8.32716
C         10.09104       -7.26821       -8.15255
S         10.10290       -5.76504       -7.33156
C          9.75256       -4.86870       -8.75285
C          9.61917       -5.71724       -9.83809
C          9.81063       -7.08545       -9.49574
C          9.63118       -3.42739       -8.73858
C          9.79394       -2.56122       -7.66661
C          9.61022       -1.19718       -8.02935
C          9.31085       -1.03114       -9.36195
S          9.24740       -2.54696      -10.16507
C          9.08569        0.19935      -10.07843
S          9.84657        1.65114       -9.55797
C          9.18212        2.57548      -10.84360
C          8.35206        1.78493      -11.62107
C          8.31402        0.42742      -11.19168
C          9.44572        3.96937      -11.00529
C         10.58990        4.54567      -10.59974
C         10.85437        5.93850      -10.74047
C         11.66955        6.71472       -9.96338
C         11.69381        8.13226      -10.29730
C         12.41662        9.09281       -9.44348
C         13.08859       10.20982       -9.93508
C         13.61685       11.15708       -9.05213
C         13.66724       10.89459       -7.68354
C         13.13479        9.71645       -7.18732
C         12.46240        8.85544       -8.05190
O         13.24835        9.52688       -5.83787
C         13.52629        8.18048       -5.46013
O         14.04658       12.33044       -9.61696
C         13.95303       13.45225       -8.73596
C         10.92097        8.38660      -11.43850
S         10.20083        6.88695      -11.98393
C         10.58797        9.59378      -12.21686
C         10.70243       10.93996      -11.92497
C         10.28571       11.85248      -12.98385
C         10.33042       13.26939      -13.08215
C         10.90955       14.08238      -11.97249
C         10.65853       14.05062      -10.60708
C         11.24878       15.14518       -9.90081
C         12.05169       15.92418      -10.70256
S         12.12645       15.27709      -12.28549
C         12.83562       17.14762      -10.34349
Cl        10.97097       15.41382       -8.22850
C          9.78746       13.92135      -14.21649
C          9.19359       13.19611      -15.27278
C          9.18374       11.77904      -15.19357
C          9.74518       11.13740      -14.06269
S          9.92830        9.45390      -13.79869
C          8.55045       10.97523      -16.29274
C          7.74108        9.84396      -16.23759
C          7.24099        9.42669      -17.51074
C          7.61791       10.28381      -18.51907
S          8.83260       11.34973      -17.96557
C          7.13315       10.33105      -19.93423
Cl         6.22610        8.06119      -17.69777
C          8.67110       14.10683      -16.26855
C          8.97524       15.42723      -16.05764
S          9.68560       15.62241      -14.53706
C          8.68852       16.54017      -16.92143
C          8.39580       17.83339      -16.56001
C          8.04265       18.72234      -17.64739
C          7.71720       20.11973      -17.69497
C          7.96430       20.98069      -16.45459
C          8.61359       20.70155      -15.24801
C          8.65342       21.77416      -14.30211
C          8.12260       22.92544      -14.81750
S          7.41578       22.62176      -16.32817
C          8.08434       24.30639      -14.25652
Cl         9.35306       21.59387      -12.74996
C          7.17246       20.64680      -18.91874
C          6.89435       19.81047      -20.02696
C          7.31994       18.46957      -19.98359
C          7.93962       17.95692      -18.82402
S          8.71524       16.41543      -18.60480
C          7.10339       17.60191      -21.18486
C          7.21501       17.90837      -22.53750
C          6.95787       16.80549      -23.40024
C          6.74445       15.63989      -22.70249
S          6.53608       15.97017      -21.04001
C          6.63556       14.24247      -23.21286
Cl         6.98700       16.95228      -25.10629
C          6.15700       20.52687      -21.04859
C          6.02372       21.86981      -20.81597
S          6.77732       22.28692      -19.37805
H         11.73872      -15.56728       -3.49576
H         12.41444      -14.91530       -5.90780
H         13.27020      -11.33224       -9.02464
H         12.46696      -15.53482      -11.75349
H         12.09708      -16.54091      -10.34696
H         13.77028      -16.07862      -10.68017
H          8.24602       -8.97100       -4.10821
H          9.39168       -8.47686        0.85644
H         10.07242      -10.10937        0.95168
H          8.32668       -9.89456        0.81666
H          9.87989       -8.08455       -5.41907
H          9.39479       -5.38733      -10.84188
H          9.73824       -7.89081      -10.21507
H         10.03844       -2.87915       -6.66216
H          9.70602       -0.37673       -7.33303
H          7.80850        2.15599      -12.48068
H          7.73566       -0.34454      -11.68356
H          8.67200        4.54566      -11.50159
H         11.36296        3.96251      -10.10498
H         12.20636        6.29245       -9.11720
H         13.16619       10.39420      -11.00253
H         14.12728       11.58756       -6.98693
H         11.94949        7.99532       -7.63382
H         13.76108        8.17574       -4.39055
H         14.39708        7.78738       -5.99744
H         12.65433        7.53854       -5.60721
H         13.96135       14.35993       -9.34442
H         14.81498       13.49032       -8.07767
H         13.02462       13.43678       -8.15455
H         11.08866       11.30447      -10.98616
H         10.01800       13.31795      -10.13050
H         13.39876       16.98985       -9.41648
H         12.16632       18.00164      -10.18804
H         13.55819       17.42502      -11.11811
H          7.47509        9.33581      -15.31996
H          7.46722        9.44995      -20.49496
H          7.47554       11.22522      -20.46200
H          6.03725       10.34363      -19.95197
H          8.11609       13.79646      -17.14538
H          8.37215       18.09306      -15.51630
H          9.08761       19.76892      -14.99594
H          8.41593       24.33611      -13.21442
H          7.07176       24.72118      -14.29537
H          8.74654       24.96343      -14.83176
H          7.48203       18.89116      -22.90561
H          5.63070       14.04642      -23.59876
H          6.85952       13.50457      -22.43494
H          7.35404       14.07480      -24.02271
H          5.74655       20.08055      -21.94580
H          5.54348       22.60912      -21.42904
