125

C         -5.55182       -0.07545        7.36395
C         -5.45470        1.03863        6.56986
C         -4.88854        0.81607        5.24965
C         -4.63991        1.68522        4.12328
C         -5.24034        3.09129        4.11107
C         -6.09365        3.74289        5.00399
C         -6.41408        5.09846        4.67733
C         -5.87186        5.47827        3.48009
S         -5.02757        4.18985        2.78284
C         -5.93511        6.78826        2.77268
Cl        -7.37325        6.07999        5.69960
C         -3.83151        1.17986        3.04205
C         -3.42971       -0.16630        2.98134
C         -3.79523       -1.02388        4.04270
C         -4.48672       -0.53132        5.16359
S         -4.98520       -1.44093        6.56352
C         -3.36296       -2.44499        4.01433
C         -2.68654       -3.17976        4.97769
C         -2.40496       -4.51683        4.57622
C         -2.80333       -4.76319        3.28183
S         -3.74642       -3.46612        2.67764
C         -2.54600       -5.95289        2.41930
Cl        -1.60270       -5.62037        5.60997
C         -2.67793       -0.44260        1.76967
C         -2.50891        0.63099        0.93652
S         -3.12342        2.00689        1.67469
C         -1.86090        0.58061       -0.42511
C         -1.92132       -0.52610       -1.26927
C         -2.59528       -1.84926       -1.15993
N         -1.28016       -0.19506       -2.43660
C         -0.83275        1.09791       -2.39260
C         -0.10340        1.67505       -3.55541
C         -1.18062        1.61446       -1.15447
C         -0.88721        2.96923       -0.80713
C         -0.32516        3.41342        0.32925
C         -0.10854        4.81011        0.61963
C          0.66755        5.40090        1.63020
C          1.57331        4.62651        2.44055
N          2.34726        3.99514        3.01194
C          0.50423        6.80888        1.62885
C         -0.20771        7.25772        0.57273
S         -0.88382        6.05580       -0.34988
S         -0.27472        8.93243        0.41942
C          0.59633        9.06397        1.85384
C          0.91320        7.88335        2.42624
C          1.43694        8.02529        3.73298
C          1.50346        6.96208        4.67948
N          1.46354        6.07511        5.43125
C          1.63504        9.38007        4.03553
S          1.06764       10.39302        2.73163
C          2.17940       10.00558        5.30977
C          3.15741        9.47939        6.15230
C          4.04186        8.28162        6.12506
N          3.33833       10.37174        7.18562
C          2.54487       11.47035        7.02693
C          2.54661       12.57416        8.02443
C          1.82875       11.29126        5.85840
C          0.84617       12.25366        5.46178
C          1.13032       13.39751        4.81273
C          0.16741       14.44088        4.66315
C         -0.91210       14.77654        5.45242
C         -1.67505       15.92676        5.01050
C         -2.79296       16.59062        5.57895
C         -3.35955       16.11287        6.86528
C         -3.68738       16.81790        8.01469
C         -4.26061       16.00339        9.03567
C         -4.29194       14.67308        8.68376
S         -3.81807       14.46071        7.05406
C         -4.68608       13.48133        9.49050
Cl        -4.80260       16.66213       10.52018
C         -3.37307       17.70603        4.93654
C         -2.94586       18.11256        3.66119
C         -1.83558       17.43866        3.07761
C         -1.16950       16.40795        3.79551
S          0.33428       15.60257        3.43485
C         -1.34677       17.87281        1.73668
C         -1.29333       19.13540        1.15765
C         -0.62824       19.15855       -0.10472
C         -0.11676       17.92542       -0.43278
S         -0.79957       16.72053        0.56500
C          0.88330       17.55972       -1.47549
Cl        -0.41115       20.60325       -0.99406
C         -3.79872       19.17646        3.16966
C         -4.68983       19.65331        4.09621
S         -4.65499       18.73280        5.51106
H         -5.93384       -0.13670        8.37458
H         -5.76291        1.98264        6.98325
H         -6.50758        3.31243        5.89567
H         -5.88842        6.66595        1.68468
H         -5.09387        7.41845        3.07988
H         -6.86369        7.32072        2.99935
H         -2.39238       -2.77591        5.93889
H         -1.91931       -6.69422        2.92532
H         -2.01279       -5.65235        1.50956
H         -3.47990       -6.44306        2.12969
H         -2.26467       -1.41096        1.53666
H         -3.65897       -1.72164       -0.93294
H         -2.13247       -2.46363       -0.38427
H         -2.52699       -2.41082       -2.09814
H         -1.19149       -0.80639       -3.23879
H          0.92928        1.31168       -3.56639
H         -0.07831        2.76823       -3.52419
H         -0.57955        1.38308       -4.49747
H         -1.13489        3.67954       -1.59465
H         -0.03389        2.68631        1.08939
H          4.65618        8.27220        5.22083
H          3.48396        7.35275        6.19652
H          4.72156        8.27560        6.98628
H          3.98869       10.24006        7.95027
H          3.10462       12.29931        8.92539
H          1.52412       12.82031        8.32939
H          3.00777       13.47131        7.59957
H         -0.16107       12.06454        5.82523
H          2.13613       13.56249        4.43130
H         -1.13893       14.21494        6.34818
H         -3.54460       17.88627        8.12337
H         -3.79598       12.90476        9.76808
H         -5.35872       12.82567        8.92846
H         -5.19743       13.76420       10.41543
H         -1.65784       20.03529        1.63407
H          0.80090       16.51365       -1.78598
H          1.89198       17.70734       -1.06890
H          0.78801       18.18607       -2.36669
H         -3.74352       19.61036        2.18082
H         -5.38047       20.47931        3.98989
