84

C          3.35858       -6.59950       -1.24708
O          3.39110       -5.44683       -0.87515
C          4.30393       -7.66146       -0.86403
C          4.16172       -8.77001       -1.71281
C          4.87105       -9.92847       -1.42346
C          5.70356       -9.95430       -0.28678
C          5.82354       -8.82377        0.54820
C          5.13241       -7.64956        0.24533
Br         6.84059       -8.82768        2.15300
Br         6.62041      -11.58417        0.06347
C          3.14061       -8.42869       -2.74332
C          3.03333       -8.96523       -3.97974
C          3.89028      -10.00459       -4.43599
N          4.60397      -10.84894       -4.79546
C          2.11263       -8.45506       -4.94658
N          1.36375       -8.03774       -5.71689
C          2.41768       -7.25068       -2.21758
C          1.11158       -6.95361       -2.33327
C          0.44862       -5.98220       -1.52292
C         -0.17393       -6.12966       -0.30153
C         -0.77459       -4.90942        0.18528
N         -1.42312       -4.80765        1.38252
C         -1.42724       -5.99492        2.06411
C         -2.06644       -5.95466        3.40259
O         -2.61052       -4.95298        3.84986
C         -2.01768       -7.17470        4.23062
C         -1.46787       -8.30330        3.78188
C         -0.89446       -8.40505        2.42525
O         -0.45693       -9.48246        2.04048
C         -0.85970       -7.18123        1.58819
N         -0.21293       -7.31555        0.37938
C         -0.64963       -3.86439       -0.70365
S          0.24911       -4.37022       -2.09159
C         -1.14818       -2.48912       -0.61879
C         -1.32547       -1.80939        0.58179
N         -1.76908       -0.52708        0.64986
C         -2.05091        0.07172       -0.53402
C         -1.90539       -0.61878       -1.73195
N         -1.45009       -1.89684       -1.80051
C         -2.47587        1.47018       -0.46029
C         -3.30834        2.19567       -1.28387
C         -3.46016        3.57139       -0.86253
N         -4.26086        4.47581       -1.50015
C         -4.84082        3.92722       -2.61978
C         -5.66835        4.85745       -3.42719
O         -5.95260        5.98785       -3.05095
C         -6.13984        4.39735       -4.74857
C         -5.92826        3.15314       -5.17794
C         -5.22156        2.15883       -4.34830
O         -5.09235        1.01560       -4.76829
C         -4.65985        2.60795       -3.05017
N         -3.91555        1.67085       -2.38640
C         -2.67132        3.88560        0.22601
S         -1.86176        2.47863        0.79788
C         -2.48517        5.10770        0.93145
C         -1.56727        6.02960        0.59628
C         -0.70702        5.99312       -0.63544
O         -0.24708        5.03341       -1.21496
C         -0.49845        7.41045       -0.99336
C         -0.92863        8.24304        0.05276
C         -1.38122        7.37577        1.17342
C         -1.39804        7.69994        2.48868
C         -1.67169        6.73025        3.49982
N         -1.89816        5.93466        4.30863
C         -1.05002        8.99534        2.96042
N         -0.76080       10.05795        3.33191
C         -0.93198        9.61790       -0.13908
C         -0.49685       10.13741       -1.37261
C         -0.06532        9.27943       -2.40560
C         -0.05490        7.89481       -2.21351
Br         0.46791        9.91472       -4.11514
Br        -0.54960       12.02954       -1.56516
H          4.77026      -10.82801       -2.02357
H          5.19081       -6.76668        0.87567
H          0.45631       -7.55079       -2.96154
H         -2.45033       -7.10179        5.22490
H         -1.42198       -9.19905        4.39371
H         -1.10522       -2.26043        1.54360
H         -2.12931       -0.16725       -2.69273
H         -6.66456        5.12885       -5.35483
H         -6.26548        2.81564       -6.15288
H         -3.17557        5.27781        1.75207
H         -1.29421       10.30153        0.62351
H          0.24688        7.20878       -2.99982
