118

C          0.60041       -3.30959       -4.38830
O          0.82399       -4.46468       -4.10805
C         -0.08517       -2.93028       -5.61987
C          0.04836       -1.56030       -5.86107
C         -0.62262       -1.03085       -6.95455
C         -1.39641       -1.88478       -7.77303
C         -1.49730       -3.26281       -7.49662
C         -0.82514       -3.79851       -6.40499
Br        -2.55285       -4.46337       -8.52018
Br        -2.30470       -1.07760       -9.23564
C          0.89437       -0.98235       -4.77073
C          1.60076        0.17168       -4.84411
C          1.55810        1.02509       -5.98067
N          1.52299        1.71802       -6.91913
C          2.50180        0.57786       -3.81508
N          3.22517        0.90629       -2.96998
C          0.96907       -2.02505       -3.70076
C          1.09085       -1.83892       -2.36752
C          0.99773       -2.84733       -1.35056
C          1.32070       -4.19003       -1.34691
C          1.04484       -4.88092       -0.12716
C          0.62240       -4.00840        0.86439
S          0.45598       -2.40987        0.23756
C          0.40114       -4.47422        2.17003
C          0.58296       -5.83559        2.50362
C          0.95541       -6.70577        1.48611
C          1.18115       -6.23875        0.19146
S          1.09453       -8.32023        2.04648
C          0.76063       -7.89903        3.67822
C          0.47396       -6.54303        3.75899
C          0.82168       -8.92473        4.75244
C          1.70106      -10.01729        4.67774
C          1.83727      -10.92767        5.73793
C          1.09365      -10.78658        6.91399
C          0.16039       -9.74417        6.97364
C          0.03558       -8.82073        5.91202
C          1.29378      -11.76009        8.04109
C          0.64843      -13.11728        7.92810
C         -0.57125      -13.40660        8.55701
C         -1.15396      -14.67837        8.44193
C         -0.53664      -15.67123        7.68286
C          0.64933      -15.38500        7.01373
C          1.23610      -14.11897        7.13600
C          2.12711      -11.45230        9.09277
C          2.39866      -12.46338       10.17474
C          3.43810      -13.39836       10.03942
C          3.70943      -14.32675       11.05395
C          2.94764      -14.33262       12.21982
C          1.92830      -13.39607       12.37958
C          1.65922      -12.46332       11.36718
C          2.85761      -10.13274        9.16298
C          2.31172       -9.01032        9.80129
C          3.02821       -7.79228        9.89316
C          4.31592       -7.65305        9.35274
C          4.86552       -8.79694        8.74374
C          4.15337      -10.01056        8.64895
C          5.06736       -6.36681        9.43863
C          4.98821       -5.32807       10.35941
C          5.96416       -4.27556       10.15792
C          6.74134       -4.54106        9.03763
S          6.23594       -5.97085        8.23871
C          7.79959       -3.70349        8.67718
C          8.13811       -2.58267        9.44853
C          7.34355       -2.28056       10.54768
C          6.25928       -3.10497       10.89316
S          7.91157       -0.85779       11.34338
C          9.24900       -0.66562       10.27645
C          9.23752       -1.67258        9.32871
C         10.21099        0.36787       10.50118
C         10.93298        0.95361        9.53139
C         12.23749        1.58900        9.92158
O         12.57126        2.01710       11.00485
C         13.09261        1.47856        8.72174
C         12.35416        0.97032        7.63981
C         10.93260        0.86658        8.06453
C          9.85216        0.95349        7.25014
C          8.53647        1.16664        7.75592
N          7.46258        1.37722        8.14620
C          9.95631        0.94140        5.83088
N         10.05741        0.91221        4.67556
C         13.01872        0.65177        6.46430
C         14.40313        0.88878        6.37358
C         15.11456        1.43515        7.46141
C         14.45477        1.72779        8.65817
Br        16.98208        1.77756        7.40129
Br        15.24042        0.41474        4.73280
H         -0.59501        0.02939       -7.18742
H         -0.89018       -4.85085       -6.14022
H          1.19853       -0.82881       -1.98648
H          1.75325       -4.70750       -2.19007
H          0.10149       -3.77196        2.94468
H          1.48421       -6.93289       -0.59000
H          0.23419       -6.04779        4.69169
H          2.32365      -10.17364        3.79997
H          2.54536      -11.74476        5.63213
H         -0.47644       -9.63263        7.84783
H         -0.69080       -8.01674        6.00901
H         -1.08387      -12.64568        9.13827
H         -2.09411      -14.89614        8.94329
H         -0.98148      -16.66109        7.60625
H          1.11859      -16.14633        6.39514
H          2.15891      -13.92311        6.59826
H          4.05127      -13.40981        9.14276
H          4.51744      -15.04483       10.93539
H          3.15140      -15.06018       13.00277
H          1.34428      -13.39073       13.29692
H          0.86948      -11.73413       11.52285
H          1.32058       -9.06946       10.24394
H          2.55174       -6.95129       10.39176
H          5.87446       -8.77525        8.33634
H          4.63632      -10.86217        8.17572
H          4.30089       -5.33234       11.19652
H          8.39674       -3.94272        7.80002
H          5.65887       -2.85561       11.76584
H         10.00902       -1.79563        8.57908
H         10.45703        0.58507       11.54238
H         12.50501        0.20424        5.61827
H         14.98310        2.11372        9.52556
