101

C          3.43900        4.67118       -3.25394
C          3.73210        5.98035       -3.09081
C          4.09488        6.81479       -4.18577
N          4.35443        7.49320       -5.09070
C          3.77476        6.58441       -1.79837
N          3.83283        7.08378       -0.75083
C          3.63611        3.85954       -4.47728
C          3.94561        2.54729       -4.08008
C          4.16618        1.51862       -4.97877
C          3.98194        1.79149       -6.34054
C          3.58651        3.09681       -6.76075
C          3.44223        4.13557       -5.81997
C          3.30770        3.31822       -8.11729
C          3.43144        2.28682       -9.04974
C          3.85225        1.02395       -8.64295
C          4.12713        0.77743       -7.29736
C          3.76609        2.40913       -2.61697
O          3.98002        1.42621       -1.94065
C          3.13489        3.70828       -2.19901
C          2.17424        3.68692       -1.26103
C          1.11811        4.67317       -1.04637
C          1.00548        5.28517        0.14600
C          0.00359        6.30322        0.39970
C         -1.06538        6.50176       -0.40297
C         -1.26754        5.56073       -1.58918
C          0.10248        5.00948       -2.14051
N         -0.07124        3.88567       -3.08836
C         -1.10010        3.13941       -2.86467
C         -2.07958        3.37519       -1.75598
N         -2.19171        4.49564       -1.13193
F         -2.88948        2.36932       -1.40249
F         -1.31260        2.09934       -3.68042
C         -1.95249        7.58690       -0.05879
S         -3.28767        7.27209        0.98527
C         -3.82262        8.90416        0.97258
C         -2.99002        9.68340        0.19264
C         -1.95077        8.92477       -0.43941
S         -0.77484        9.63103       -1.56688
C         -1.45332       11.20565       -1.87835
O         -1.66829       11.72091       -2.95702
C         -1.60161       11.86631       -0.52642
O         -0.80448       12.60301        0.01637
S         -3.19384       11.43287        0.00152
C         -4.95994        9.26434        1.74881
C         -6.19415        9.17375        1.23031
C         -7.39487        9.48994        1.97981
C         -8.35450        8.55632        2.11638
C         -9.52090        8.79504        2.93437
C         -9.91468       10.04170        3.25396
C         -9.09885       11.23995        2.79600
C         -7.58223       10.85180        2.64283
N         -6.80093       11.90853        1.96267
C         -7.45255       12.55210        1.05579
C         -8.89807       12.31404        0.73707
N         -9.71679       11.71958        1.53520
F         -9.36989       12.77233       -0.42930
F         -6.80606       13.50813        0.37709
C        -11.09149       10.28929        4.07029
C        -12.35817        9.95176        3.77596
C        -13.61377       10.20783        4.52697
C        -13.74972       10.42028        5.86126
C        -15.01434       10.56790        6.49672
N        -16.04237       10.69227        7.02109
C        -12.63882       10.45492        6.76041
N        -11.74535       10.48467        7.49112
C        -14.73471       10.01269        3.55415
C        -14.21139        9.46610        2.37795
C        -12.75615        9.35421        2.45088
O        -12.07745        8.86757        1.57128
C        -14.97216        9.11992        1.27211
C        -16.34553        9.35000        1.32330
C        -16.91619        9.93715        2.48627
C        -16.09999       10.26879        3.59282
C        -18.29721       10.17989        2.50681
C        -19.09896        9.84691        1.41287
C        -18.53400        9.26648        0.28053
C        -17.16306        9.02044        0.23431
H          4.39377        0.51827       -4.62127
H          3.11336        5.11735       -6.14849
H          2.97206        4.29486       -8.46125
H          3.19697        2.47016      -10.09553
H          3.95503        0.22427       -9.37229
H          4.43930       -0.22197       -7.00094
H          2.06184        2.77745       -0.66704
H          1.72134        5.09670        0.94390
H          0.15876        6.89797        1.29771
H         -1.76775        6.10673       -2.40076
H          0.54233        5.82896       -2.72562
H         -4.80074        9.60315        2.76927
H         -6.34756        8.80305        0.21819
H         -8.26742        7.56926        1.66927
H        -10.09550        7.92184        3.23272
H         -9.17291       12.05523        3.52783
H         -7.16768       10.76920        3.65780
H        -10.84994       10.83670        4.97664
H        -14.49130        8.69602        0.39474
H        -16.57320       10.73514        4.45052
H        -18.76617       10.63204        3.37892
H        -20.16798       10.04166        1.44564
H        -19.15992        9.00692       -0.56932
H        -16.73867        8.57103       -0.66150
