93

C         -1.86606        1.24455       -1.62629
C         -0.71660        1.41288       -2.31886
C         -0.70901        1.55444       -3.73734
N         -0.72007        1.66766       -4.88880
C          0.55205        1.35543       -1.67156
N          1.58662        1.27802       -1.14965
C         -3.22821        1.06897       -2.16324
C         -3.93874        0.24686       -1.27230
C         -5.27266       -0.07055       -1.45166
C         -5.95549        0.55321       -2.50694
C         -5.27087        1.47290       -3.35801
C         -3.89223        1.69779       -3.20183
C         -5.99929        2.18897       -4.31766
C         -7.37284        1.99314       -4.46136
C         -8.03150        1.05924       -3.66652
C         -7.32805        0.34154       -2.69738
C         -3.13892        0.03540       -0.03773
O         -3.43104       -0.64319        0.92230
C         -1.98247        0.98353       -0.19347
C         -1.64803        1.73501        0.87180
C         -1.13473        3.07617        0.78474
C         -0.26528        3.75727        1.61832
C         -0.04447        5.12215        1.22358
O          0.75347        6.02214        1.85731
C          1.75976        5.44103        2.68505
C          1.18840        4.54960        3.77680
S          0.50379        3.03916        3.03860
C         -0.78073        5.49742        0.10634
S         -1.78920        4.19317       -0.35755
C         -0.82270        6.78006       -0.60553
C         -1.05644        7.07310       -1.94645
C         -0.97046        8.48089       -2.23751
O         -1.09577        9.06016       -3.46437
C         -1.90622        8.32080       -4.37552
C         -1.29070        6.96979       -4.68721
S         -1.39016        5.89379       -3.23384
C         -0.66819        9.25644       -1.12764
S         -0.57665        8.25214        0.25922
C         -0.52281       10.71045       -1.03523
C          0.26020       11.50818       -0.20959
C          0.03733       12.91454       -0.41846
O          0.65378       13.95158        0.21449
C          1.92619       13.61024        0.77039
C          1.82204       12.50115        1.80367
S          1.45564       10.93615        0.96606
C         -0.94309       13.18655       -1.35799
S         -1.42232       11.71943       -2.10424
C         -1.38040       14.46751       -1.83847
C         -2.61197       14.78836       -2.27562
C         -3.02465       15.98717       -3.05026
C         -2.59246       17.26255       -2.89168
C         -3.13277       18.35379       -3.62863
N         -3.56857       19.24343       -4.23744
C         -1.60560       17.61893       -1.92745
N         -0.79489       17.91258       -1.15213
C         -4.14830       15.54028       -3.92816
C         -4.59375       14.29674       -3.46248
C         -3.80096       13.87083       -2.30436
O         -4.12802       13.01382       -1.51157
C         -5.59905       13.56048       -4.06719
C         -6.19992       14.08709       -5.21360
C         -5.78255       15.35421       -5.71131
C         -4.74746       16.06838       -5.06487
C         -6.41145       15.86877       -6.85592
C         -7.41787       15.15034       -7.50577
C         -7.80699       13.90291       -7.02684
C         -7.20249       13.37403       -5.88675
H         -5.78537       -0.70361       -0.73302
H         -3.38523        2.42263       -3.83346
H         -5.50796        2.92996       -4.94550
H         -7.92928        2.57464       -5.19227
H         -9.10036        0.90198       -3.78775
H         -7.87000       -0.36697       -2.07419
H         -1.93604        1.39669        1.86758
H          2.27475        6.28216        3.16242
H          2.50580        4.92948        2.06364
H          0.38998        5.06260        4.32302
H          1.97106        4.26620        4.48699
H         -1.94374        8.91011       -5.29928
H         -2.93991        8.25434       -4.00933
H         -0.23511        7.07715       -4.95503
H         -1.81792        6.48921       -5.51635
H          2.29852       14.51493        1.26415
H          2.63987       13.37903       -0.03205
H          1.02515       12.71069        2.52468
H          2.76564       12.38874        2.34546
H         -0.57751       15.19719       -1.89905
H         -5.88059       12.59215       -3.66269
H         -4.42577       17.01212       -5.49458
H         -6.12585       16.84070       -7.25428
H         -7.89750       15.56570       -8.38888
H         -8.58448       13.34125       -7.53890
H         -7.52100       12.39661       -5.52948
