105

C         -3.02800        3.68091       -0.04361
C         -3.58276        2.50961       -0.43021
C         -3.67193        1.38633        0.44437
N         -3.71163        0.47075        1.16078
C         -4.22617        2.36988       -1.69606
N         -4.79881        2.24126       -2.69224
C         -2.77060        4.05820        1.36065
C         -3.15493        5.40128        1.50127
C         -3.13916        6.05320        2.72040
C         -2.61492        5.36491        3.82696
C         -2.10550        4.04098        3.66860
C         -2.21351        3.38156        2.43150
C         -1.47909        3.41348        4.75492
C         -1.37727        4.05695        5.98846
C         -1.92228        5.32626        6.15929
C         -2.53737        5.97635        5.08709
C         -3.39291        5.99852        0.16037
O         -3.76918        7.12315       -0.08623
C         -2.94742        4.93013       -0.80457
C         -2.20814        5.30615       -1.86829
C         -1.21502        4.49681       -2.52761
C         -0.74237        4.51007       -3.83521
C          0.49716        3.77331       -4.00754
N          1.18148        3.69640       -5.18038
C          0.54855        4.35302       -6.18948
C         -0.67257        5.06073       -6.03183
N         -1.34758        5.19684       -4.84527
C         -1.31249        5.72867       -7.21895
C          1.24254        4.27262       -7.52137
C          0.94779        3.22762       -2.82827
S         -0.26821        3.36599       -1.62862
C          2.24007        2.70966       -2.45049
C          2.54130        1.71381       -1.54656
C          3.91212        1.76595       -1.10270
N          4.39596        0.97930       -0.09969
C          3.45881        0.12264        0.39657
C          2.12645        0.04445       -0.07364
N          1.61287        0.85361       -1.04003
C          1.16340       -0.96260        0.49036
C          3.94040       -0.77994        1.49798
C          4.65181        2.73902       -1.75124
S          3.67525        3.50199       -2.95387
C          6.02743        3.15095       -1.54112
C          6.59964        4.39566       -1.73069
C          7.99745        4.42018       -1.39639
N          8.77576        5.53386       -1.51240
C          8.10617        6.59669       -2.03404
C          6.73139        6.58013       -2.35087
N          5.92782        5.49318       -2.18595
C          6.07254        7.79053       -2.95247
C          8.95443        7.80210       -2.32997
C          8.49312        3.19759       -0.97618
S          7.22087        2.03546       -0.98329
C          9.79030        2.78983       -0.52691
C         10.94703        3.30095       -0.97450
C         11.27044        4.28643       -2.00737
C         10.85500        4.28145       -3.29658
C         11.27345        5.26591       -4.23139
N         11.59870        6.09516       -4.97842
C         10.00271        3.26942       -3.81582
N          9.30992        2.44208       -4.25875
C         12.32247        5.14989       -1.42549
C         12.91970        4.45036       -0.36716
C         12.15373        3.21503       -0.08314
O         12.40652        2.37631        0.75481
C         13.99011        4.95426        0.35157
C         14.44494        6.24573        0.03979
C         13.77789        7.01161       -0.95948
C         12.72255        6.44816       -1.69559
C         14.18347        8.33163       -1.20190
C         15.26140        8.88218       -0.51035
C         15.94716        8.11935        0.43059
C         15.53667        6.81404        0.71175
H         -3.47059        7.08490        2.79235
H         -1.82751        2.37181        2.31890
H         -1.04802        2.41984        4.64705
H         -0.87343        3.56460        6.81672
H         -1.85636        5.81820        7.12673
H         -2.94340        6.97364        5.24375
H         -2.19471        6.36566       -2.13961
H         -0.66871        6.52836       -7.59724
H         -2.27716        6.16852       -6.94729
H         -1.49278        4.99959       -8.01563
H          2.20189        3.75152       -7.42509
H          1.45111        5.27347       -7.91090
H          0.63220        3.71607       -8.23872
H          1.56998       -1.97420        0.39620
H          0.21288       -0.93711       -0.05353
H          0.95483       -0.74662        1.54226
H          4.93356       -0.47358        1.84303
H          4.00679       -1.81085        1.13850
H          3.26719       -0.73506        2.35976
H          6.48961        7.99212       -3.94445
H          6.21791        8.66656       -2.31294
H          4.99515        7.63421       -3.06378
H          9.98076        7.64349       -1.98825
H          8.57157        8.68913       -1.81928
H          8.98961        7.98170       -3.40949
H          9.81610        2.10545        0.32296
H         14.43190        4.36992        1.15352
H         12.22093        7.04859       -2.44775
H         13.66424        8.94537       -1.93580
H         15.57015        9.90472       -0.71347
H         16.80099        8.54375        0.95273
H         16.08208        6.24299        1.46014
