84

C         -0.79887        7.69264        1.34799
C         -1.77735        7.71591        0.41302
C         -3.16114        7.66034        0.75937
N         -4.27520        7.56061        1.06030
C         -1.47767        7.92293       -0.97115
N         -1.25619        8.16242       -2.08100
C         -0.97943        8.02735        2.77932
C          0.15267        8.76040        3.17739
C          0.27602        9.33074        4.43066
C         -0.73870        9.08290        5.36456
C         -1.84272        8.24884        5.01461
C         -1.96702        7.74199        3.70618
C         -2.79303        7.93225        5.99570
C         -2.68240        8.44576        7.28877
C         -1.63099        9.29779        7.61476
C         -0.66409        9.61421        6.65970
C          1.20089        8.68701        2.13166
O          2.29423        9.20761        2.15554
C          0.64724        7.73382        1.11292
C          1.47212        6.87903        0.47437
C          1.11502        5.66408       -0.20627
C          0.01767        4.88206        0.09854
O         -0.09249        3.84789       -0.76249
C          0.96916        3.92474       -1.59442
C          1.83733        4.93859       -1.22634
C          3.15303        5.22289       -1.81978
O          3.57425        6.37597       -1.83240
C          3.94464        4.07131       -2.29971
C          3.69444        2.70986       -2.31869
C          4.74919        1.93969       -2.88226
C          5.87468        2.69171       -3.13866
S          5.53311        4.36087       -2.92187
C          7.16565        2.17110       -3.50975
S          7.38474        0.68173       -4.37125
C          9.13337        0.71695       -4.29296
C          9.45531        1.84700       -3.60850
C          8.39442        2.63975       -3.19931
N          8.68909        3.78852       -2.51541
C         10.06847        3.73928       -2.50428
N         10.78250        4.82150       -1.91899
O         10.48005        5.95213       -2.30841
O         11.61546        4.53054       -1.05129
C         10.57844        2.58140       -3.11559
C          9.91784       -0.35407       -4.92203
C          9.48025       -1.68928       -5.05102
C         10.24567       -2.72671       -5.64477
F          9.66760       -3.93977       -5.64498
C         11.54221       -2.58226       -6.19421
C         12.01250       -1.22695       -6.14031
C         11.19904       -0.10515       -5.48923
N         11.83469        1.07788       -5.54313
S         13.27574        0.84454       -6.30589
N         13.17630       -0.76624       -6.63735
C         12.35876       -3.69739       -6.74411
C         13.76777       -3.68272       -6.66715
C         14.55531       -4.70999       -7.18866
C         13.94030       -5.81614       -7.77015
C         12.54629       -5.91667       -7.86093
C         11.78073       -4.83969       -7.34955
C         11.83506       -7.08691       -8.48933
O         11.01959       -7.72417       -7.51801
N         14.81247       -6.87262       -8.25896
O         15.62614       -6.57054       -9.13448
O         14.67765       -7.99135       -7.74553
H          1.15983        9.91007        4.68284
H         -2.81610        7.11307        3.45253
H         -3.62698        7.27129        5.76656
H         -3.42105        8.18196        8.04175
H         -1.55637        9.70886        8.61857
H          0.15486       10.27311        6.94156
H          2.54367        7.08178        0.54461
H         -0.76279        4.92254        0.84521
H          0.97331        3.17315       -2.37114
H          2.80461        2.22792       -1.94352
H          4.70512        0.86238       -2.99451
H          8.04505        4.48333       -2.15229
H         11.62894        2.34153       -3.21597
H          8.50238       -1.98018       -4.66592
H         14.29277       -2.85789       -6.19071
H         15.64080       -4.63663       -7.12451
H         10.69533       -4.91666       -7.43540
H         12.49936       -7.83495       -8.92813
H         11.19304       -6.72785       -9.30033
H         11.61470       -8.21077       -6.92050
