102

C          3.26024        4.42421       -1.01980
C          3.49578        5.73232       -0.77725
C          4.06119        6.59012       -1.76186
N          4.51529        7.28712       -2.57494
C          3.38168        6.29010        0.52438
N          3.41113        6.77433        1.58518
C          3.77868        3.65977       -2.17434
C          4.11849        2.38211       -1.70123
C          4.71238        1.42320       -2.49934
C          4.88120        1.71700       -3.86004
C          4.43524        2.96939       -4.37979
C          3.90808        3.95098       -3.52094
C          4.50622        3.19922       -5.76037
C          5.02799        2.23121       -6.61880
C          5.50956        1.03005       -6.10614
C          5.43825        0.77389       -4.73564
C          3.58927        2.19224       -0.32825
O          3.71388        1.21841        0.38020
C          2.76520        3.41787       -0.08091
C          1.57918        3.26645        0.53828
C          0.47778        4.16143        0.35339
C          0.05473        4.85060       -0.76731
O          0.70408        4.76627       -1.95669
C          0.28965        5.79961       -2.85627
C         -1.23177        5.97910       -2.86171
C         -1.98590        4.75417       -3.38171
O         -1.71888        6.33749       -1.55350
C         -1.12738        5.60968       -0.56909
C         -1.59366        5.56115        0.73254
S         -0.61549        4.46620        1.64868
C         -2.72765        6.25249        1.32864
C         -2.90868        6.68680        2.62794
O         -1.97945        6.51152        3.60374
C         -2.55804        6.72069        4.89889
C         -3.40849        7.99771        4.95439
C         -2.59806        9.27329        4.72484
O         -4.50120        7.93829        4.02053
C         -4.13453        7.39211        2.83054
C         -4.92963        7.45000        1.70118
S         -4.12639        6.64344        0.40240
C         -6.23912        8.06402        1.52352
C         -6.79901        9.15123        2.17013
O         -6.13596        9.90399        3.08950
C         -7.01675       10.80658        3.77803
C         -8.03529       11.46491        2.84184
C         -7.38276       12.35433        1.77644
O         -8.87335       10.44928        2.25912
C         -8.13239        9.42878        1.74976
C         -8.62444        8.54278        0.80756
S         -7.38198        7.42041        0.39254
C         -9.92398        8.36791        0.22355
C        -10.78144        9.36451       -0.05030
C        -12.24572        9.30886       -0.24717
C        -12.93349        8.43408       -1.01531
C        -14.32928        8.56399       -1.24787
N        -15.47181        8.68106       -1.43456
C        -12.28502        7.36643       -1.70476
N        -11.75743        6.49241       -2.24999
C        -12.78155       10.52494        0.44019
C        -11.70067       11.38044        0.69757
C        -10.47765       10.81363        0.12432
O         -9.51032       11.43083       -0.26546
C        -11.78553       12.53229        1.45883
C        -13.03561       12.87931        1.97436
C        -14.17449       12.07807        1.66863
C        -14.03372       10.89128        0.91094
C        -15.42767       12.48179        2.15288
C        -15.55603       13.62315        2.94840
C        -14.43246       14.37263        3.28471
C        -13.17872       14.00519        2.79804
H          4.97505        0.45531       -2.08320
H          3.57172        4.90077       -3.92755
H          4.13732        4.13049       -6.18565
H          5.05781        2.41683       -7.68965
H          5.92892        0.28397       -6.77675
H          5.80782       -0.17885       -4.36143
H          1.38171        2.34161        1.08265
H          0.65831        5.52716       -3.85077
H          0.78873        6.73445       -2.56466
H         -1.46586        6.82196       -3.52100
H         -1.82627        3.87023       -2.75530
H         -1.68376        4.50903       -4.40462
H         -3.06341        4.94930       -3.37308
H         -1.74134        6.76962        5.62662
H         -3.16997        5.84249        5.14462
H         -3.86200        8.06296        5.95050
H         -2.14162        9.29470        3.73002
H         -1.80420        9.37568        5.47137
H         -3.25130       10.15050        4.78582
H         -6.40036       11.57011        4.26339
H         -7.53917       10.24794        4.56615
H         -8.69949       12.10201        3.43792
H         -6.77852       11.78240        1.06445
H         -6.74339       13.11347        2.23665
H         -8.14559       12.87567        1.19020
H        -10.24688        7.33334        0.12903
H        -10.89171       13.11169        1.66904
H        -14.90910       10.27070        0.74534
H        -16.32245       11.91059        1.91299
H        -16.53599       13.92341        3.31139
H        -14.53245       15.24869        3.92088
H        -12.31322       14.60562        3.07165
