81

C          2.84203        2.68316       -0.59506
C          3.33776        3.71463        0.12482
C          4.46015        4.47341       -0.30978
N          5.36357        5.10045       -0.68696
C          2.85213        4.00137        1.43642
N          2.50065        4.20047        2.52302
C          3.49497        2.01925       -1.74118
C          3.20081        0.64544       -1.66143
C          3.70108       -0.28011       -2.55824
C          4.46162        0.19995       -3.63397
C          4.67720        1.60298       -3.78719
C          4.20776        2.50778       -2.81899
C          5.34793        2.07160       -4.92473
C          5.83410        1.18055       -5.88115
C          5.66875       -0.19062       -5.70656
C          4.98370       -0.67894       -4.59256
C          2.16853        0.40985       -0.62301
O          1.69344       -0.65125       -0.28310
C          1.75909        1.79034       -0.19813
C          0.46841        2.05106        0.06147
C         -0.16392        3.34614       -0.02307
C         -0.24396        4.16426       -1.09928
C         -1.06650        5.35974       -0.93452
C         -1.69199        5.49730        0.25401
Si        -1.26352        4.00570        1.36492
C         -2.55776        6.57768        0.64869
C         -3.43113        7.25425       -0.13207
C         -4.20102        8.30827        0.52390
C         -3.95826        8.50145        1.83897
Si        -2.62718        7.28192        2.40781
C         -4.60074        9.45977        2.69820
C         -5.87856        9.89637        2.62318
C         -6.27254       10.90531        3.59936
C         -5.31046       11.32071        4.44637
Si        -3.72182       10.35901        4.12632
C         -5.41555       12.30715        5.49101
C         -5.78313       13.59377        5.35100
C         -5.79343       14.68816        6.35647
C         -6.01033       14.57643        7.68744
C         -6.10164       15.69663        8.55697
N         -6.17212       16.61221        9.27260
C         -6.22126       13.32124        8.32748
N         -6.38182       12.30013        8.85397
C         -5.69338       15.96692        5.58682
C         -5.87459       15.67790        4.22965
C         -6.05363       14.24044        4.02022
O         -6.37404       13.74637        2.96031
C         -5.83547       16.62788        3.22114
C         -5.59981       17.95551        3.57802
C         -5.40673       18.29216        4.94669
C         -5.44426       17.28653        5.94134
C         -5.17817       19.63564        5.28156
C         -5.13680       20.62372        4.29465
C         -5.31579       20.28494        2.95662
C         -5.54472       18.95716        2.59904
H          3.45642       -1.33312       -2.45215
H          4.37061        3.57394       -2.94830
H          5.49073        3.13890       -5.08299
H          6.34641        1.55931       -6.76212
H          6.06486       -0.88267       -6.44554
H          4.85551       -1.75432       -4.48586
H         -0.21389        1.21106        0.20771
H          0.20012        3.95835       -2.06855
H         -1.15869        6.07205       -1.74694
H         -2.42998        3.14187        1.66437
H         -0.55307        4.40604        2.60185
H         -3.59267        7.05045       -1.18345
H         -4.92217        8.88081       -0.04913
H         -3.09024        6.31426        3.43355
H         -1.36121        7.92688        2.84083
H         -6.59728        9.56001        1.88553
H         -7.28044       11.30417        3.58624
H         -3.34066        9.45365        5.24063
H         -2.52627       11.13176        3.70058
H         -5.10902       11.92019        6.46043
H         -5.97316       16.32533        2.18647
H         -5.25924       17.57959        6.96994
H         -5.03499       19.92984        6.31952
H         -4.96447       21.66067        4.57247
H         -5.27942       21.05444        2.18953
H         -5.68110       18.71188        1.54735
