116

C          1.02040        1.95489       -2.17689
C         -0.11998        1.79455       -2.89251
C         -0.98023        0.67640       -2.70169
N         -1.67916       -0.23304       -2.51547
C         -0.46247        2.68188       -3.95846
N         -0.72465        3.38093       -4.84295
C          1.66502        0.94246       -1.32021
C          3.05407        1.11734       -1.42650
C          3.95852        0.26900       -0.81667
C          3.44953       -0.75932       -0.00801
C          2.04269       -0.87480        0.20055
C          1.15318       -0.01947       -0.46888
C          1.55474       -1.85042        1.08018
C          2.42692       -2.73192        1.71698
C          3.79604       -2.65197        1.47853
C          4.30583       -1.66865        0.62802
C          3.35109        2.38571       -2.13849
O          4.44036        2.84550       -2.40063
C          2.00604        3.02314       -2.33293
C          1.89229        4.35674       -2.22544
C          0.67662        5.00856       -1.83651
C         -0.30309        4.60880       -0.92765
F         -0.28692        3.47832       -0.27312
C         -1.30213        5.58666       -0.73628
C         -1.03395        6.67740       -1.50557
S          0.33196        6.59129       -2.49330
C         -1.88359        7.74690       -1.34805
C         -2.91388        7.58483       -0.46694
S         -2.74158        5.97454        0.13599
C         -3.67958        8.77329       -0.39005
F         -4.73166        8.91089        0.37075
C         -3.17409        9.77304       -1.21023
S         -1.76186        9.24766       -2.09920
C         -3.66806       11.12651       -1.35292
C         -4.27806       11.91214       -0.40260
C         -4.53057       13.28866       -0.81203
C         -5.01731       14.42397       -0.09437
C         -5.32110       14.32631        1.37606
C         -6.32207       14.93322        2.13105
C         -6.32897       14.55785        3.50693
C         -5.38404       13.59988        3.78338
S         -4.32056       13.41340        2.45919
C         -5.20007       12.81114        5.03813
Cl        -7.45452       15.19893        4.62601
C         -5.25335       15.64422       -0.78675
C         -5.05143       15.76496       -2.17293
C         -4.49574       14.65686       -2.87219
C         -4.24424       13.44022       -2.18097
S         -3.61098       11.95777       -2.82195
C         -4.20574       14.78755       -4.34109
C         -4.93677       15.39508       -5.35719
C         -4.32917       15.29996       -6.64869
C         -3.16066       14.57586       -6.62508
S         -2.71564       14.21299       -5.01783
C         -2.27870       14.16998       -7.76212
Cl        -5.02643       16.01113       -8.04188
C         -5.48339       17.07449       -2.63111
C         -5.93034       17.92170       -1.64182
S         -5.75877       17.17312       -0.13226
C         -6.44945       19.26654       -1.80911
C         -7.14427       19.75757       -2.90753
F         -7.45731       19.04860       -3.95922
C         -7.45900       21.13081       -2.77188
C         -6.98461       21.60635       -1.58329
S         -6.20696       20.49266       -0.58581
C         -7.16487       22.95206       -1.34888
C         -7.83082       23.64704       -2.31825
S         -8.20236       22.48638       -3.54302
C         -7.93230       25.00910       -1.95374
F         -8.51648       25.92000       -2.68534
C         -7.29619       25.27657       -0.74854
S         -6.60910       23.84343       -0.02670
C         -7.11305       26.53968       -0.10860
C         -7.96102       27.02564        0.81223
C         -8.06447       28.40116        1.36600
C         -7.05191       29.23575        1.67485
C         -7.25316       30.50585        2.30133
N         -7.42733       31.53809        2.80453
C         -5.68583       28.87492        1.46269
N         -4.57804       28.58514        1.25933
C         -9.51611       28.60427        1.66468
C        -10.15531       27.35729        1.59955
C         -9.20441       26.30313        1.23904
O         -9.41760       25.11146        1.30186
C        -11.51857       27.17394        1.75042
C        -12.30776       28.30135        1.97292
C        -11.69939       29.58567        2.06814
C        -10.29994       29.72660        1.90505
C        -12.52155       30.69777        2.30946
C        -13.90641       30.55335        2.43360
C        -14.49411       29.29763        2.31110
C        -13.69888       28.17643        2.08431
H          5.02610        0.42742       -0.93982
H          0.08452       -0.10749       -0.29356
H          0.48758       -1.93504        1.27777
H          2.03444       -3.48635        2.39427
H          4.47134       -3.35380        1.96157
H          5.38063       -1.62091        0.46652
H          2.79109        4.97284       -2.28422
H         -4.48608       11.52137        0.58391
H         -7.05522       15.61835        1.72773
H         -4.92379       13.46213        5.87301
H         -4.43254       12.03703        4.93706
H         -6.13639       12.30258        5.30050
H         -5.88386       15.89506       -5.20289
H         -2.86649       13.73619       -8.57988
H         -1.53928       13.41756       -7.46585
H         -1.73981       15.03862       -8.15300
H         -5.46170       17.39349       -3.66402
H         -6.30727       27.14598       -0.51059
H        -11.94578       26.17915        1.65850
H         -9.87409       30.72474        1.93687
H        -12.09198       31.69327        2.40465
H        -14.52864       31.42474        2.62261
H        -15.57258       29.18836        2.39416
H        -14.17663       27.20311        1.98859
