119

C         -2.01439        3.11212       -3.07054
C         -0.93104        2.60759       -2.43293
C         -0.96221        1.35099       -1.75908
N         -1.01646        0.33241       -1.20581
C          0.35120        3.21536       -2.57252
N          1.40794        3.64982       -2.76365
C         -3.14617        2.26707       -3.49921
C         -3.36578        2.53965       -4.85744
C         -4.22854        1.77154       -5.62378
C         -4.98309        0.76954       -4.97691
C         -4.88532        0.61249       -3.56221
C         -3.93680        1.34802       -2.83218
C         -5.73892       -0.28727       -2.90635
C         -6.63538       -1.07560       -3.62681
C         -6.67330       -0.99049       -5.01504
C         -5.86051       -0.07038       -5.68520
C         -2.63636        3.79159       -5.22967
O         -2.61099        4.33169       -6.31309
C         -2.03665        4.29416       -3.92715
C         -1.94217        5.61525       -3.65478
C         -1.95115        6.29973       -2.30553
C         -3.12748        5.92230       -1.43526
C         -4.37346        6.53270       -1.67811
C         -5.52448        6.17110       -0.97469
C         -5.48373        5.12157       -0.07484
C         -4.29517        4.43358        0.11025
C         -3.12420        4.84892       -0.53613
F         -2.00385        4.14153       -0.33696
F         -4.28039        3.33254        0.87541
F         -6.58966        4.75689        0.58964
F         -6.67565        6.82324       -1.18972
F         -4.48221        7.46084       -2.64104
C         -1.13382        7.38102       -2.00832
C         -0.24205        7.89074       -3.10856
C         -0.74422        8.77672       -4.07874
C          0.09142        9.39720       -5.00723
C          1.43311        9.06285       -5.05668
C          1.92989        8.10075       -4.18842
C          1.10457        7.53158       -3.21400
F          1.61687        6.61596       -2.38179
F          3.21178        7.72111       -4.28634
F          2.23882        9.64451       -5.95634
F         -0.40561       10.30755       -5.85681
F         -2.06547        8.99644       -4.16003
C         -1.14185        8.08913       -0.69145
S          0.28051        8.07452        0.39648
C         -0.56428        8.87781        1.75523
C         -1.91960        8.78605        1.38500
C         -2.01124        8.98871       -0.06472
C         -3.15620        9.53893       -0.67889
C         -3.02358       10.48601       -1.80539
O         -1.98303       10.78823       -2.35862
O         -4.15875       11.17379       -2.02837
C         -4.30410        9.55034        0.14523
C         -4.29181        9.10429        1.48634
C         -3.09769        8.81782        2.17900
O         -3.20100        8.40153        3.47661
C          0.21083        9.60256        2.82197
C          0.60816       11.08569        2.53638
C          1.85845       11.43254        1.98079
C          2.23772       12.77386        1.76008
C          1.38490       13.81335        2.08460
C          0.15315       13.50679        2.63334
C         -0.23216       12.16182        2.85888
F         -1.42653       11.93971        3.41054
F         -0.68349       14.50822        2.96194
F          1.74598       15.09033        1.87441
F          3.44248       13.05626        1.23333
F          2.73940       10.47812        1.66734
C          0.69477        9.05125        4.00637
C          0.60815        7.58586        4.50298
C          1.62104        7.05767        5.35406
C          1.51913        5.81146        5.98959
C          0.38800        5.04257        5.83271
C         -0.60782        5.49970        4.99877
C         -0.46750        6.71296        4.31046
F         -1.39898        6.94913        3.39754
F         -1.72511        4.77552        4.83647
F          0.26797        3.86209        6.45497
F          2.51722        5.37735        6.77288
F          2.73900        7.75801        5.61323
C          1.48517        9.94519        4.98166
C          1.18074       10.18356        6.28330
C          2.05977       10.47203        7.48136
C          3.20133       11.19470        7.52524
C          3.92928       11.44673        8.73365
N          4.53909       11.65326        9.72031
C          3.73742       11.80262        6.35830
N          4.12849       12.27804        5.37380
C          1.37390        9.85111        8.65480
C          0.09311        9.44658        8.26019
C         -0.14869        9.78998        6.85337
O         -1.22383        9.76223        6.29422
C         -0.77377        8.72333        9.06893
C         -0.35460        8.38118       10.36012
C          0.91368        8.82492       10.82417
C          1.76958        9.55308        9.95990
C          1.29652        8.50801       12.14037
C          0.47406        7.73709       12.96631
C         -0.74395        7.26424       12.48956
C         -1.15902        7.58966       11.19739
H         -4.33853        1.96326       -6.68778
H         -3.83298        1.19210       -1.76112
H         -5.71802       -0.38133       -1.82183
H         -7.29417       -1.76482       -3.10319
H         -7.34670       -1.63446       -5.57646
H         -5.92122       -0.01919       -6.77065
H         -2.11412        6.29770       -4.49190
H         -3.89840       11.87920       -2.65879
H         -5.23644        9.96425       -0.24222
H         -5.24088        9.08194        2.02218
H         -3.98730        7.82501        3.53034
H          2.51068       10.08880        4.63917
H         -1.73900        8.40753        8.68191
H          2.74891        9.82447       10.34268
H          2.24821        8.85606       12.53865
H          0.78922        7.49875       13.97988
H         -1.37323        6.64456       13.12460
H         -2.11570        7.20759       10.84659
