130

C          1.03982        2.52617       -2.39524
C         -0.21047        2.65333       -2.89145
C         -0.99647        1.51728       -3.24576
N         -1.62680        0.58425       -3.50813
C         -0.75993        3.92507       -3.21884
N         -1.20153        4.95901       -3.52410
C          1.84931        1.29156       -2.32664
C          3.19509        1.64558       -2.53989
C          4.23098        0.73279       -2.47703
C          3.91914       -0.57447       -2.07863
C          2.56752       -0.92963       -1.78211
C          1.52830        0.00085       -1.94957
C          2.29229       -2.20237       -1.26648
C          3.31950       -3.12117       -1.05379
C          4.63134       -2.79092       -1.38223
C          4.93002       -1.52786       -1.89606
C          3.32747        3.12360       -2.55941
O          4.32085        3.78152       -2.77878
C          1.97885        3.60467       -2.10456
C          1.98060        4.52040       -1.12008
C          0.98757        4.54155       -0.09159
C          0.95352        3.86766        1.12670
C          1.98423        2.92088        1.60463
O          2.82559        2.43023        0.86942
C          1.90130        2.65890        3.05356
C          0.73539        3.05280        3.83133
C          0.92305        2.89395        5.19424
S          2.38260        2.06391        5.51097
C          2.84643        2.01695        3.84919
C          4.15544        1.33558        3.54619
F          4.50531        1.33173        2.24343
F          5.18135        1.92275        4.21770
F          4.12790        0.03433        3.94080
C          0.07236        3.33893        6.35135
F         -0.82599        4.29210        6.00609
F         -0.61003        2.31033        6.90813
F          0.82990        3.89233        7.33688
C         -0.48274        3.58689        3.21533
O         -1.58972        3.41677        3.70272
C         -0.22620        4.21061        1.91503
C         -1.01413        5.16762        1.29073
S         -0.32852        5.62021       -0.21862
C         -2.21927        5.85063        1.72930
C         -3.29511        6.25184        0.92962
C         -4.27641        6.95654        1.66839
C         -3.93099        7.00070        2.99895
S         -2.44444        6.37135        3.36954
C         -5.00014        7.57903        3.71438
C         -6.00746        7.92727        2.84018
C         -5.59131        7.61690        1.47942
C         -6.20903        7.88272        0.30833
C         -5.46214        7.38266       -0.91744
N         -4.84254        6.96781       -1.93431
C         -7.56678        8.54793        0.15207
N         -8.69315        9.09976        0.02244
C         -7.13395        8.41060        3.52243
C         -6.92400        8.38586        4.89880
S         -5.33298        7.83187        5.31388
C         -7.85757        8.72127        5.94659
C         -7.58407        9.30911        7.15262
C         -8.74463        9.54620        7.98557
C         -8.88793       10.18698        9.25149
C         -7.66956       10.77337        9.91516
C         -6.34479       10.34234        9.93725
C         -5.46253       11.19201       10.67863
C         -6.11899       12.25911       11.24142
S         -7.75303       12.27564       10.77129
C         -5.59245       13.35171       12.11159
Cl        -3.78525       10.87402       10.81374
C        -10.17326       10.24523        9.86504
C        -11.30958        9.67213        9.26361
C        -11.15956        9.06690        7.98662
C         -9.89211        9.02640        7.36262
S         -9.49526        8.35216        5.81301
C        -12.33196        8.44940        7.29555
C        -12.72270        8.51539        5.96214
C        -13.88162        7.74018        5.66260
C        -14.41711        7.15385        6.78531
S        -13.39070        7.37261        8.13297
C        -15.66420        6.34791        6.92727
Cl       -14.49787        7.59923        4.07149
C        -12.46358        9.79808       10.13679
C        -12.21335       10.41635       11.33557
S        -10.61475       10.94818       11.39361
C        -13.04276       10.56072       12.47749
C        -13.86110       11.60086       12.69420
C        -14.63862       11.92585       13.91116
C        -15.25354       11.03872       14.73198
C        -16.08138       11.44217       15.81422
N        -16.75761       11.77065       16.69962
C        -15.17673        9.63172       14.52438
N        -15.10041        8.48296       14.34781
C        -14.76766       13.41383       13.93792
C        -14.34999       13.90395       12.69040
C        -13.93852       12.80549       11.80814
O        -13.75396       12.89081       10.61313
C        -14.28255       15.24937       12.37512
C        -14.66505       16.17239       13.34921
C        -15.12498       15.71655       14.61738
C        -15.15804       14.33087       14.90686
C        -15.53487       16.67125       15.56258
C        -15.47827       18.03789       15.27268
C        -14.99979       18.47432       14.04095
C        -14.59488       17.54594       13.08366
H          5.25650        1.05760       -2.62821
H          0.50818       -0.27506       -1.70091
H          1.27631       -2.48165       -0.99455
H          3.09434       -4.09424       -0.62457
H          5.42837       -3.51224       -1.22047
H          5.96620       -1.28632       -2.12425
H          2.88882        5.09397       -0.93202
H         -3.32539        6.02011       -0.12866
H         -8.07000        8.72721        3.06609
H         -6.57545        9.58692        7.41454
H         -5.98855        9.44853        9.44306
H         -5.40946       12.98627       13.12812
H         -6.29406       14.19070       12.18153
H         -4.65399       13.74615       11.71046
H        -12.18860        9.07615        5.20502
H        -16.42479        6.65925        6.20295
H        -16.10710        6.46239        7.92305
H        -15.44861        5.28782        6.76448
H        -13.44389        9.39529        9.92468
H        -12.89947        9.79138       13.22917
H        -13.92235       15.55953       11.39842
H        -15.47421       14.01795       15.89700
H        -15.91131       16.36124       16.53535
H        -15.80765       18.76417       16.01216
H        -14.94625       19.53734       13.82024
H        -14.22477       17.90624       12.12550
