144

C          4.44279        3.98249        3.14482
C          4.67856        4.18085        1.82580
C          5.85522        4.80332        1.35203
N          6.83875        5.30495        0.98047
C          3.82004        3.63061        0.82582
N          3.14758        3.18672       -0.00381
C          5.40997        4.29938        4.21532
C          5.36055        3.26665        5.15588
C          6.22995        3.22239        6.23374
C          7.11272        4.30489        6.42305
C          7.06288        5.42609        5.54689
C          6.21871        5.40207        4.42886
C          7.85975        6.55113        5.80681
C          8.74294        6.56057        6.88463
C          8.84620        5.44129        7.70539
C          8.03309        4.32576        7.48264
C          4.18809        2.39547        4.87290
O          3.85261        1.40221        5.47940
C          3.45502        3.08733        3.74678
C          2.11866        3.00335        3.64987
C          1.31819        3.96859        2.95395
C          1.50534        5.32725        2.82764
C          0.56048        6.00755        1.97232
C          0.56261        7.31804        1.42760
C          1.78463        8.16950        1.56383
C          1.94198        9.53937        1.75168
C          3.29008        9.92741        2.02495
C          4.13353        8.84283        2.06614
S          3.36188        7.47977        1.39331
C          5.53613        8.75008        2.55746
Cl         3.72777       11.54631        2.36329
C         -0.58874        7.81024        0.77971
C         -1.78369        7.07741        0.73069
C         -1.75901        5.73152        1.21325
C         -0.55618        5.19162        1.75414
S         -0.15058        3.54832        2.20345
C         -3.00934        4.91780        1.16285
C         -4.03583        4.89468        0.22654
C         -5.08344        3.97307        0.54060
C         -4.81781        3.25238        1.68140
S         -3.42983        3.85974        2.46542
C         -5.56175        2.11802        2.30418
Cl        -6.47391        3.81089       -0.44487
C         -2.85151        7.92762        0.20487
C         -2.44575        9.18392       -0.21257
S         -0.76409        9.28900       -0.07675
C         -3.25075       10.28577       -0.73275
N         -4.55924       10.16038       -0.86421
C         -4.96600       11.36477       -1.35243
C         -3.84126       12.24013       -1.52512
C         -4.30497       13.55908       -2.01753
O         -3.66451       14.55535       -2.26752
C         -5.76643       13.35275       -2.11565
C         -6.07969       12.00742       -1.69845
N         -7.42242       11.81002       -1.76830
C         -7.86455       12.95837       -2.20201
C         -6.86345       14.01711       -2.45195
C         -2.71793       11.63982       -1.15919
C         -1.39724       12.17815       -1.09962
C         -0.71918       12.63835       -2.16223
C          0.61579       13.11265       -2.02108
C          1.24068       13.68963       -0.94088
C          2.56156       14.22127       -1.19364
C          3.42264       15.03754       -0.40079
C          3.02807       15.48007        0.98628
C          3.82994       15.72243        2.10002
C          3.11463       16.13524        3.26463
C          1.75479       16.05258        3.08811
S          1.39090       15.82384        1.43565
C          0.65620       16.19681        4.09095
Cl         3.90848       16.60995        4.70469
C          4.68544       15.41843       -0.92566
C          5.20016       14.84364       -2.10052
C          4.34140       14.02945       -2.89110
C          3.00952       13.79020       -2.45781
S          1.72195       12.96872       -3.29160
C          4.87815       13.45735       -4.17368
C          6.13500       12.92769       -4.45048
C          6.29860       12.46582       -5.79067
C          5.13939       12.57392       -6.52026
S          3.95753       13.44220       -5.64073
C          4.83289       12.07731       -7.89586
Cl         7.78062       11.81410       -6.34806
C          6.59226       15.20791       -2.25699
C          7.02139       16.20505       -1.41913
S          5.77506       16.65130       -0.35338
C          8.27118       16.88306       -1.40847
C          9.24267       16.58818       -0.53153
C         10.41703       17.40035       -0.15714
C         11.24911       18.06275       -0.99482
C         12.40320       18.75736       -0.53278
N         13.33697       19.32995       -0.14918
C         11.05401       18.05387       -2.41111
N         10.87709       18.04224       -3.55536
C         10.56610       17.21420        1.31621
C          9.78852       16.10715        1.69345
C          9.09036       15.54743        0.53266
O          8.53987       14.46937        0.47600
C          9.58829       15.70922        3.00146
C         10.17547       16.47511        4.00714
C         10.99521       17.59143        3.66712
C         11.18982       17.95088        2.31277
C         11.56844       18.34059        4.70527
C         11.31908       18.01996        6.04241
C         10.49386       16.94620        6.36464
C          9.92989       16.17302        5.35227
H          6.19447        2.38877        6.92803
H          6.19082        6.24974        3.75690
H          7.80152        7.43438        5.17288
H          9.35718        7.43732        7.07621
H          9.55643        5.43965        8.52869
H          8.12746        3.46967        8.14711
H          1.59004        2.24988        4.23442
H          2.33995        5.82691        3.29949
H          1.12848       10.25164        1.76563
H          6.15036        9.58054        2.20361
H          6.01992        7.82373        2.23840
H          5.53887        8.76215        3.65523
H         -4.05311        5.51198       -0.66257
H         -6.43639        1.82455        1.71611
H         -5.90632        2.38521        3.30830
H         -4.91600        1.23535        2.38714
H         -3.89305        7.63314        0.14652
H         -8.92731       13.17949       -2.38737
H         -7.01376       15.02159       -2.79447
H         -0.93631       12.16200       -0.11519
H         -1.16750       12.63910       -3.15454
H          0.70563       13.80416       -0.01233
H          4.90690       15.61996        2.09642
H          1.01671       16.00348        5.10799
H         -0.14989       15.47691        3.90526
H          0.23352       17.20518        4.06670
H          6.93022       12.85304       -3.72148
H          5.72982       11.71305       -8.40759
H          4.39688       12.86481       -8.51801
H          4.12528       11.24092       -7.84982
H          7.26497       14.80233       -2.99755
H          8.34649       17.73436       -2.07812
H          8.93929       14.86586        3.21972
H         11.77669       18.83595        2.08549
H         12.20787       19.19319        4.48470
H         11.76296       18.61704        6.83522
H         10.28484       16.71091        7.40518
H          9.28014       15.34312        5.62391
