105

C          1.38284        1.19953        0.18066
C          2.17892        2.01502        0.90505
C          2.47889        1.76101        2.27416
N          2.71018        1.55147        3.39295
C          2.88259        3.09762        0.29617
N          3.49061        3.94911       -0.20439
C          0.92303       -0.14463        0.57371
C          0.95182       -0.95133       -0.57760
C          0.63980       -2.29636       -0.55549
C          0.18309       -2.83656        0.65431
C          0.03149       -1.99937        1.80210
C          0.43045       -0.65264        1.76064
C         -0.54005       -2.53110        2.96474
C         -0.92337       -3.87101        3.01919
C         -0.72287       -4.70102        1.91944
C         -0.17549       -4.18766        0.74289
C          1.16769       -0.10763       -1.77794
O          1.25030       -0.47072       -2.93059
C          1.11640        1.29638       -1.24934
C          0.52870        2.25120       -1.98605
C         -0.02384        3.44995       -1.43566
C         -0.65449        3.68528       -0.20679
C         -1.07286        5.03117       -0.07812
C         -0.79953        5.74012       -1.22667
S         -0.04993        4.88112       -2.42920
C         -1.26330        7.05628       -1.06453
C         -1.82257        7.19380        0.18786
C         -1.73383        5.90764        0.88875
C         -2.15148        5.61101        2.13921
C         -2.79807        6.57246        2.96248
N         -3.33221        7.35643        3.62915
C         -1.94738        4.31415        2.68941
N         -1.75266        3.24787        3.10922
C         -2.27255        8.51449        0.40643
C         -2.04213        9.31859       -0.71483
S         -1.27589        8.42748       -1.99571
C         -2.35128       10.72378       -0.85944
C         -2.36028       11.68647        0.15129
C         -2.76317       12.94484       -0.34845
C         -3.04148       12.88825       -1.69608
S         -2.81537       11.40225       -2.39382
C         -3.52771       14.14257       -2.11863
C         -3.55964       14.99237       -1.03602
C         -3.03109       14.29853        0.14023
C         -2.83235       14.78846        1.37850
C         -3.13810       16.13641        1.70910
N         -3.42345       17.22765        1.99279
C         -2.31465       13.97720        2.42800
N         -1.90666       13.30125        3.27711
C         -4.14446       16.23040       -1.37283
C         -4.51168       16.26652       -2.72107
S         -4.12377       14.78030       -3.53320
C         -5.16143       17.31543       -3.43505
C         -4.50103       18.36862       -3.93675
C         -5.13263       19.54434       -4.49671
C         -4.30883       20.60298       -4.56411
C         -2.98083       20.31740       -4.04466
S         -2.77109       18.57529       -3.89087
C         -2.09963       21.20704       -3.55471
C         -2.27044       22.64508       -3.46986
C         -1.47568       23.21693       -2.55151
C         -0.63240       22.26462       -1.86041
S         -0.64739       20.72861       -2.67766
C          0.03380       22.52079       -0.72612
C          0.76843       21.54976        0.07480
C          1.75263       21.81759        0.94718
C          2.55558       20.91850        1.81754
C          2.23814       19.67092        2.24964
C          3.01778       18.96394        3.21394
N          3.64080       18.38777        4.00385
C          1.08307       18.95488        1.81997
N          0.17092       18.32331        1.47696
C          3.75184       21.71369        2.25095
C          3.58989       23.03210        1.82674
C          2.35092       23.19211        1.06557
O          1.96187       24.24925        0.61299
C          4.52161       24.04618        2.02472
C          5.72556       23.70876        2.67909
C          5.91113       22.38439        3.10016
C          4.93610       21.37227        2.89620
S          7.45281       22.18624        3.85510
C          7.85847       23.80374        3.59728
C          6.86965       24.52139        2.98038
Br         9.50685       24.53981        4.09670
H          0.69254       -2.88576       -1.46617
H          0.30679       -0.01943        2.63589
H         -0.70601       -1.90235        3.83781
H         -1.37697       -4.26695        3.92439
H         -1.00600       -5.74920        1.97262
H         -0.04249       -4.85257       -0.10813
H          0.34884        2.06190       -3.04517
H         -0.80952        2.91201        0.53409
H         -2.74169        8.89190        1.30793
H         -2.10306       11.45650        1.17838
H         -4.32503       17.06219       -0.70182
H         -6.24547       17.28415       -3.47287
H         -6.18092       19.57764       -4.76074
H         -4.62223       21.58505       -4.88804
H         -3.00386       23.19252       -4.04419
H         -1.49389       24.26907       -2.30163
H         -0.03609       23.52878       -0.32188
H          0.43853       20.52611       -0.07687
H          4.33768       25.04898        1.65210
H          5.17038       20.36571        3.22141
H          6.94926       25.57281        2.73218
