150

C          5.24229        4.69096        3.37282
C          4.99881        4.76403        2.04274
C          5.91776        5.34579        1.12181
N          6.66383        5.82941        0.37601
C          3.90740        4.08160        1.43109
N          3.09805        3.46192        0.87703
C          6.58674        4.86722        3.98080
C          6.70004        3.96215        5.04839
C          7.87805        3.77988        5.75643
C          8.98411        4.57817        5.41742
C          8.85790        5.56263        4.39576
C          7.65461        5.69671        3.67954
C          9.94727        6.39498        4.10402
C         11.15659        6.25259        4.78422
C         11.29388        5.27101        5.76087
C         10.21506        4.44168        6.07979
C          5.38287        3.34551        5.32955
O          5.12831        2.54174        6.20458
C          4.42232        4.02313        4.38788
C          3.13940        4.14892        4.76670
C          2.25146        5.12896        4.23750
C          2.14152        6.45736        4.57999
C          1.13143        7.21016        3.85581
C          0.72926        8.58018        3.91802
C          1.35135        9.52914        4.91497
C          1.64051       10.89201        4.83288
C          2.23192       11.44166        6.01486
C          2.42130       10.49208        6.98948
S          1.73321        9.00419        6.52084
C          3.05064       10.63498        8.33721
Cl         2.64363       13.09913        6.15199
C         -0.28605        9.04400        3.04029
C         -0.88922        8.20714        2.08278
C         -0.47188        6.85122        2.01034
C          0.48781        6.36332        2.93495
S          0.98428        4.71500        3.20011
C         -1.06835        5.94882        0.96854
C         -2.36546        5.85182        0.47477
C         -2.53718        4.82928       -0.51149
C         -1.38578        4.10795       -0.71984
S         -0.07008        4.85167        0.07142
C         -1.17513        2.88351       -1.55085
Cl        -4.03674        4.55013       -1.28936
C         -1.87563        8.94300        1.31908
C         -2.00944       10.26211        1.68262
S         -0.98733       10.62442        2.97536
C         -2.90225       11.23122        1.10766
C         -4.11804       10.98640        0.52707
C         -4.81819       12.15531        0.04095
C         -3.98333       13.27841        0.13783
S         -2.58128       12.87662        1.07112
C         -4.33811       14.52825       -0.43384
O         -3.53882       15.67528       -0.37968
C         -2.12313       15.48736       -0.40454
C         -5.61372       14.68820       -1.03998
C         -6.47349       13.59236       -1.05634
C         -6.10500       12.33018       -0.52939
O         -7.03233       11.30016       -0.69657
C         -7.07969       10.26816        0.28127
S         -7.97772       14.00661       -1.79593
C         -7.53279       15.63447       -2.11266
C         -6.23212       15.84231       -1.68386
C         -8.44465       16.57932       -2.75292
C         -8.18910       17.85832       -3.20476
C         -9.32967       18.55546       -3.79545
C         -9.49839       19.89310       -4.26519
C         -8.38367       20.90188       -4.15387
C         -8.00110       21.93094       -5.01520
C         -6.84965       22.66176       -4.57606
C         -6.32613       22.15774       -3.40817
S         -7.36487       20.96882       -2.75359
C         -5.08065       22.55744       -2.68096
Cl        -6.21174       23.99096       -5.45073
C        -10.74107       20.27110       -4.83653
C        -11.75494       19.33909       -5.11495
C        -11.60069       18.01205       -4.63135
C        -10.41930       17.67341       -3.91031
S        -10.09139       16.23754       -2.99744
C        -12.71255       17.01209       -4.82832
C        -14.09473       17.18271       -4.86461
C        -14.83448       15.96152       -4.97618
C        -14.01614       14.85706       -4.96700
S        -12.38396       15.33509       -5.14801
C        -14.36608       13.40600       -4.86834
Cl       -16.54628       15.93485       -5.03348
C        -12.78907       19.95878       -5.91544
C        -12.61685       21.31623       -6.15172
S        -11.32202       21.86289       -5.18140
C        -13.46441       22.18123       -6.91151
C        -13.07919       23.26554       -7.61263
C        -13.93666       24.31162       -8.24692
C        -15.11605       24.11616       -8.88697
C        -15.81681       25.16774       -9.53967
N        -16.39053       26.02473      -10.07271
C        -15.70961       22.81478       -9.01533
N        -16.17636       21.76856       -9.09306
C        -13.14738       25.58258       -8.18525
C        -11.83122       25.25531       -7.83617
C        -11.68214       23.82329       -7.69256
O        -10.62317       23.21458       -7.73371
C        -10.82977       26.18338       -7.60833
C        -11.14737       27.53047       -7.75103
C        -12.46431       27.91032       -8.14282
C        -13.45996       26.92619       -8.34947
C        -12.74222       29.27540       -8.30622
C        -11.76180       30.24345       -8.06688
C        -10.48993       29.86198       -7.65556
C        -10.18098       28.51332       -7.49979
H          7.92571        3.05255        6.56263
H          7.58081        6.45456        2.90510
H          9.86619        7.16652        3.34038
H         11.99197        6.90687        4.54598
H         12.24261        5.15346        6.27913
H         10.34852        3.68677        6.85236
H          2.78188        3.60093        5.63862
H          2.77744        6.86824        5.35108
H          1.43744       11.50965        3.96706
H          3.99459       11.18877        8.27692
H          3.27661        9.66341        8.79047
H          2.37906       11.17482        9.01210
H         -3.18653        6.47358        0.80416
H         -1.91672        2.11474       -1.30154
H         -0.18710        2.43710       -1.39273
H         -1.27444        3.12058       -2.61439
H         -2.46789        8.51991        0.51890
H         -4.47083        9.97257        0.49138
H         -1.63610       16.45150       -0.56852
H         -1.81474       14.80301       -1.20336
H         -1.74801       15.17245        0.57114
H         -7.92163        9.60836        0.05413
H         -7.19817       10.65773        1.29745
H         -6.22516        9.60500        0.19993
H         -5.71893       16.79077       -1.79683
H         -7.20900       18.30002       -3.09908
H         -8.51236       22.16669       -5.94249
H         -4.26474       22.77257       -3.38158
H         -4.72193       21.76548       -2.01367
H         -5.25717       23.45563       -2.08104
H        -14.58877       18.14042       -4.77388
H        -15.43023       13.25640       -4.65424
H        -13.81342       12.93078       -4.04853
H        -14.13347       12.87422       -5.79563
H        -13.63817       19.43547       -6.33366
H        -14.51569       21.91731       -6.86204
H         -9.84123       25.85009       -7.30099
H        -14.46196       27.25467       -8.60531
H        -13.73110       29.60445       -8.62656
H        -11.99553       31.29657       -8.19752
H         -9.73033       30.61494       -7.45474
H         -9.18106       28.23268       -7.17589
