125

C          2.30059        0.55239        0.40949
C          1.78056       -0.64403        0.77135
C          2.45802       -1.87035        0.52183
N          3.02417       -2.86401        0.32047
C          0.56586       -0.74536        1.50974
N         -0.43246       -0.81851        2.09836
C          3.61912        0.79413       -0.24326
C          4.02185        2.09750        0.08076
C          5.15511        2.70544       -0.42787
C          5.92773        1.98191       -1.33854
C          5.55819        0.64797       -1.68284
C          4.39929        0.05971       -1.12487
C          6.35153       -0.05120       -2.60495
C          7.46719        0.55052       -3.19271
C          7.81077        1.85932       -2.86652
C          7.04881        2.57000       -1.94031
C          3.00269        2.75141        0.90896
O          3.16551        3.74243        1.58639
C          1.78511        1.89036        0.76920
C          0.51740        2.33390        0.71995
C          0.11331        3.70369        0.77031
C          0.71657        4.84576        0.29508
C         -0.11730        6.02710        0.27893
C          0.06214        7.29496       -0.34001
C          1.22549        7.53911       -1.25615
C          1.96188        8.69707       -1.49206
C          3.06146        8.51791       -2.37987
C          3.22564        7.19813       -2.72232
S          1.82482        6.30801       -2.32209
C          4.38627        6.54360       -3.38959
Cl         4.08976        9.80584       -2.83686
C         -0.84761        8.33817       -0.06000
C         -1.88168        8.18336        0.87617
C         -2.13933        6.88099        1.39719
C         -1.27039        5.80958        1.05015
S         -1.41640        4.10899        1.38905
C         -3.33341        6.67817        2.28871
C         -4.58139        7.29782        2.27891
C         -5.46450        6.84881        3.31338
C         -4.90282        5.86195        4.08856
S         -3.28533        5.58538        3.62958
C         -5.49568        5.09781        5.22912
Cl        -7.03481        7.49975        3.52555
C         -2.45607        9.48143        1.17946
C         -1.98019       10.52148        0.40592
S         -0.94305        9.90786       -0.78450
C         -2.27665       11.93708        0.49560
C         -1.74662       12.98802       -0.26613
C         -2.26249       14.23353        0.14636
C         -3.15051       14.08546        1.18580
S         -3.39397       12.52818        1.69086
C         -3.61512       15.35375        1.57728
C         -3.01497       16.30983        0.79826
C         -2.14129       15.66123       -0.17789
C         -1.42351       16.23231       -1.16548
C         -0.64013       15.46324       -2.05924
N          0.00153       14.82614       -2.79717
C         -1.45438       17.64112       -1.37784
N         -1.49188       18.78573       -1.55825
C         -3.39123       17.61031        1.19917
C         -4.32260       17.57956        2.24327
S         -4.66804       15.93101        2.71508
C         -4.95202       18.70162        2.92498
S         -5.37923       18.55133        4.59629
C         -6.03076       20.13981        4.72538
C         -5.83896       20.80915        3.52822
C         -5.26635       19.97504        2.47924
C         -5.05499       20.44401        1.16691
C         -5.41485       21.79905        0.98209
S         -5.19888       22.51723       -0.64877
C         -5.94721       22.60773        2.03027
O         -6.28022       23.92418        1.80178
C         -6.17354       22.15861        3.33801
C         -6.62100       20.49772        5.98057
C         -7.65613       21.34603        6.04835
C         -8.28066       21.79338        7.27165
C         -9.27478       22.69063        7.34787
C         -9.55495       23.34640        8.66809
O         -9.26600       22.95507        9.77786
C        -10.18686       24.63788        8.33371
C        -10.34970       24.75761        6.94607
C        -10.76887       25.97194        6.41836
C        -11.15491       27.01210        7.29145
C        -11.04358       26.84338        8.69424
C        -10.52572       25.64681        9.21873
C        -11.46217       27.84477        9.63548
N        -11.81159       28.57980       10.46186
C        -11.61815       28.30597        6.71927
O        -11.42215       29.37116        7.27447
O        -12.25571       28.21122        5.53517
C        -10.02511       23.44059        6.33279
C        -10.61569       22.94887        5.21440
C        -10.60486       21.56181        4.88713
N        -10.61926       20.43450        4.61447
C        -11.41472       23.76253        4.36447
N        -12.06231       24.47983        3.72230
H          5.38987        3.73104       -0.15705
H          4.11518       -0.94163       -1.43687
H          6.10499       -1.07408       -2.88342
H          8.06667       -0.00341       -3.91124
H          8.67337        2.32857       -3.33347
H          7.33365        3.59296       -1.70134
H         -0.28756        1.63260        0.50976
H          1.70937        4.82430       -0.12896
H          1.76000        9.65197       -1.02735
H          4.37655        6.72427       -4.46735
H          4.40260        5.46257       -3.21270
H          5.32421        6.94090       -2.98207
H         -4.86939        8.05963        1.56506
H         -5.90979        5.78074        5.97778
H         -4.75412        4.46910        5.73460
H         -6.30110        4.44102        4.88102
H         -3.17293        9.63717        1.97541
H         -1.02149       12.83661       -1.05792
H         -3.00723       18.52946        0.77860
H         -4.66388       19.85637        0.34857
H         -6.43535       22.23257       -1.08448
H         -5.95527       24.14155        0.90722
H         -6.54701       22.83684        4.09075
H         -6.23571       20.03102        6.88502
H         -8.04257       21.76053        5.12756
H         -7.82310       21.43855        8.19718
H        -10.76974       26.13850        5.34554
H        -10.39156       25.50276       10.28982
H        -12.48632       27.33075        5.18395
