98

C         -3.04143        2.56730       -4.91408
C         -3.17000        3.60026       -5.77376
C         -4.42577        3.96748       -6.34303
N         -5.44598        4.26703       -6.80084
C         -2.03121        4.28061       -6.29364
N         -1.10161        4.82700       -6.73059
C         -4.06633        1.53686       -4.66349
C         -3.40531        0.29983       -4.56609
C         -4.07177       -0.88576       -4.32356
C         -5.44508       -0.81360       -4.05153
C         -6.11401        0.44870       -4.06242
C         -5.42291        1.62016       -4.41331
C         -7.45513        0.51539       -3.66486
C         -8.13487       -0.63403       -3.26262
C         -7.49534       -1.87044       -3.29071
C         -6.16208       -1.96244       -3.69299
C         -1.93652        0.51577       -4.51549
O         -1.07097       -0.33051       -4.46271
C         -1.79736        2.01074       -4.38643
C         -0.98878        2.44318       -3.39958
C         -1.21908        3.60263       -2.52751
C         -1.31208        4.85780       -3.02110
C         -1.59641        6.04145       -2.21764
C         -1.70040        6.02497       -0.86927
C         -1.49400        4.72021       -0.22180
C         -1.45336        4.50205        1.11039
Si        -1.22437        2.68914        1.51509
C         -1.15985        2.35962       -0.33671
C         -1.29340        3.49715       -1.05212
C         -1.97451        7.28924       -0.18803
C         -3.02870        7.58349        0.58881
C         -3.17871        8.82365        1.31678
C         -4.17149        8.79666        2.21909
C         -4.86832        7.52207        2.27268
S         -4.37475        6.51983        0.90818
C         -5.64152        7.08035        3.28215
C         -5.93516        7.78042        4.51987
C         -6.19620        6.94362        5.53774
C         -6.10657        5.54668        5.14806
S         -6.23178        5.42608        3.41357
C         -5.83211        4.56011        6.01593
C         -5.50735        3.13875        5.81679
C         -4.86501        2.70196        4.70431
C         -4.40849        1.33316        4.49156
C         -4.46672        0.36985        5.43845
C         -5.05173        0.76541        6.72582
C         -5.13751       -0.02065        7.82040
Si        -6.05340        0.83406        9.21220
C         -6.19759        2.34043        8.10359
C         -5.62247        2.13298        6.89974
C         -3.89177       -0.93547        5.12045
C         -4.50821       -2.12851        5.07674
C         -3.96309       -3.49814        4.84524
C         -2.68354       -3.85491        4.56055
C         -2.28148       -5.19799        4.30545
N         -1.93831       -6.28558        4.08796
C         -1.60266       -2.92915        4.49863
N         -0.70501       -2.19422        4.46114
C         -5.11215       -4.44779        5.02515
C         -6.26490       -3.71167        5.31507
C         -5.99150       -2.27462        5.29109
O         -6.85117       -1.42538        5.39470
C         -7.49285       -4.28077        5.62669
C         -7.58659       -5.67385        5.66757
C         -6.44674       -6.45876        5.35034
C         -5.22178       -5.83497        5.02280
C         -6.55321       -7.85749        5.39419
C         -7.74899       -8.47327        5.76759
C         -8.85955       -7.70031        6.09280
C         -8.78249       -6.30844        6.03548
H         -3.51996       -1.81834       -4.25277
H         -5.93402        2.57921       -4.40441
H         -7.97506        1.47108       -3.62826
H         -9.16330       -0.56045       -2.91796
H         -8.03027       -2.76390       -2.97909
H         -5.67955       -2.93754       -3.69079
H         -0.25142        1.74301       -3.00015
H         -1.16065        5.06534       -4.06848
H         -1.73674        6.96501       -2.77404
H         -1.56545        5.23620        1.89393
H         -0.99790        1.35886       -0.70548
H         -1.19578        8.03714       -0.32688
H         -2.51510        9.66585        1.17701
H         -4.38790        9.61800        2.88683
H         -5.88425        8.85421        4.62459
H         -6.37487        7.26040        6.55570
H         -5.76292        4.85150        7.06368
H         -4.60642        3.36886        3.89020
H         -3.98997        1.12944        3.50967
H         -4.79217       -1.03614        7.92317
H         -6.68006        3.23767        8.45662
H         -2.82953       -0.83406        4.93269
H         -8.34159       -3.64262        5.85935
H         -4.38107       -6.48279        4.80491
H         -5.69808       -8.48522        5.14944
H         -7.80979       -9.55801        5.81058
H         -9.78708       -8.18093        6.39390
H         -9.66223       -5.72258        6.29461
