145

C         -0.20385        5.51541        5.85370
C         -0.27324        6.82250        6.20202
C          0.80282        7.72835        5.99269
N          1.67598        8.47184        5.76566
C         -1.41971        7.35100        6.86412
N         -2.32586        7.78998        7.44155
C          1.05793        4.78956        5.61134
C          0.93062        3.53335        6.22486
C          1.99064        2.65667        6.34554
C          3.21459        3.02815        5.77019
C          3.32126        4.24622        5.03410
C          2.23011        5.12667        4.95835
C          4.53189        4.56512        4.40531
C          5.63857        3.72550        4.53071
C          5.54870        2.55982        5.28639
C          4.34323        2.20788        5.89594
C         -0.48213        3.29790        6.61092
O         -0.93559        2.31813        7.16161
C         -1.22479        4.49153        6.07291
C         -2.47007        4.31238        5.58964
C         -3.23678        5.12154        4.61046
C         -2.70484        6.24064        3.96482
C         -3.43904        6.93612        3.01976
C         -4.72575        6.50741        2.65736
C         -5.27750        5.38791        3.25410
C         -4.53225        4.70312        4.23135
C         -5.26198        7.41924        1.67310
C         -4.31667        8.43978        1.43559
C         -3.06196        8.23641        2.30070
C         -2.88993        9.42089        3.29220
C         -4.03891        9.62867        4.28223
C         -1.82745        8.07759        1.36199
C         -0.45416        7.93803        2.01743
C         -4.58075        9.47512        0.54859
C         -5.80908        9.50976       -0.12234
C         -6.74552        8.47787        0.12211
C         -6.47626        7.43145        1.01685
C         -6.17270       10.60182       -1.05009
C         -5.36790       11.61707       -1.41213
C         -5.78894       12.69253       -2.25323
C         -6.71531       12.77276       -3.27933
C         -7.37227       11.62041       -3.90037
O         -6.86469       10.51755       -4.02934
C         -8.70788       11.94566       -4.39540
C         -9.11680       13.31699       -4.64848
C        -10.42814       13.38305       -5.09491
S        -11.11471       11.81832       -5.24481
C         -9.71844       11.02531       -4.64213
C         -9.76992        9.52881       -4.45947
F         -8.83386        9.05192       -3.60621
F        -10.96430        9.13657       -3.93600
F         -9.62678        8.87200       -5.63635
C        -11.26683       14.57835       -5.44601
F        -10.97354       15.66871       -4.69840
F        -11.11919       14.91902       -6.74950
F        -12.59136       14.34783       -5.24545
C         -8.23718       14.48345       -4.41821
O         -8.51445       15.60926       -4.80793
C         -7.05921       14.15767       -3.60093
C         -6.16237       15.06408       -3.03799
S         -5.05180       14.22686       -2.01786
C         -6.04664       16.51899       -3.15465
C         -5.97899       17.33727       -4.27321
C         -5.93446       16.85727       -5.66025
O         -6.02613       15.67824       -5.96560
C         -5.67286       17.92074       -6.64178
C         -5.75107       19.33605       -6.30249
C         -5.46775       20.15796       -7.38634
S         -5.12080       19.22485       -8.78164
C         -5.30343       17.72235       -7.96626
C         -5.02023       16.47861       -8.76912
F         -5.16680       15.31162       -8.10657
F         -5.82181       16.40132       -9.86281
F         -3.73776       16.48552       -9.22307
C         -5.41724       21.65821       -7.51791
F         -5.26311       22.30326       -6.33888
F         -4.36839       22.05676       -8.28921
F         -6.53783       22.14608       -8.10720
C         -6.10388       19.79928       -4.95493
O         -6.58140       20.90027       -4.74755
C         -5.93662       18.76617       -3.92539
C         -5.66058       18.96935       -2.57320
S         -5.88745       17.46967       -1.73665
C         -5.22924       20.16565       -1.82868
C         -4.94748       21.44447       -2.27039
C         -4.56900       22.40236       -1.23632
C         -4.39114       23.81331       -1.26187
C         -4.77785       24.59005       -2.47230
C         -4.13797       25.65773       -3.08848
C         -4.80016       26.12305       -4.26140
C         -5.90773       25.36657       -4.56578
S         -6.26335       24.27598       -3.29771
C         -6.76223       25.40305       -5.78883
Cl        -4.20043       27.43584       -5.18167
C         -3.84794       24.48491       -0.14012
C         -3.39170       23.77582        0.98505
C         -3.62731       22.37355        1.03340
C         -4.28509       21.72746       -0.04586
S         -4.92551       20.12269       -0.14135
C         -3.20408       21.60973        2.24565
C         -3.21444       21.97575        3.58660
C         -2.77304       20.94382        4.46833
C         -2.49905       19.77398        3.79965
S         -2.48585       20.03932        2.11230
C         -2.19065       18.42163        4.35122
Cl        -2.67826       21.16943        6.16224
C         -2.71622       24.67336        1.90151
C         -2.79801       25.99619        1.54996
S         -3.65987       26.19788        0.11090
H          1.86044        1.71130        6.86381
H          2.32002        6.05405        4.39882
H          4.62971        5.47638        3.81813
H          6.57489        3.98887        4.04535
H          6.41904        1.91841        5.39878
H          4.29690        1.28953        6.47763
H         -2.96243        3.36920        5.84204
H         -1.71756        6.60261        4.16852
H         -6.27081        5.04237        2.98596
H         -4.97925        3.82083        4.68764
H         -2.75829       10.35223        2.72591
H         -1.97791        9.28918        3.88565
H         -5.01338        9.67114        3.78793
H         -3.90157       10.57215        4.82018
H         -4.06562        8.82895        5.02891
H         -1.76245        8.95428        0.70328
H         -1.97490        7.21507        0.69851
H         -0.17825        8.83412        2.58057
H          0.30906        7.79326        1.24485
H         -0.38687        7.07290        2.67643
H         -3.82717       10.24108        0.40943
H         -7.70979        8.47935       -0.38595
H         -7.21608        6.65599        1.19093
H         -7.18994       10.53272       -1.42681
H         -4.36801       11.69788       -0.99539
H         -5.03381       21.74447       -3.30331
H         -3.21492       26.09367       -2.72842
H         -6.86726       26.42297       -6.17184
H         -7.76791       25.01224       -5.60605
H         -6.30228       24.79588       -6.57744
H         -3.54760       22.94147        3.94388
H         -1.12527       18.32670        4.57885
H         -2.46902       17.62570        3.65106
H         -2.75670       18.24061        5.27243
H         -2.20207       24.36799        2.80328
H         -2.40156       26.85090        2.08215
