145

C         -1.04814        0.26735       -1.54155
C         -1.46955        0.68398       -0.32546
C         -0.64430        0.59781        0.83100
N          0.05572        0.54399        1.75498
C         -2.80844        1.13004       -0.11120
N         -3.90833        1.44132        0.08851
C          0.15495       -0.54526       -1.81938
C         -0.15243       -1.39755       -2.89323
C          0.71381       -2.37445       -3.34457
C          1.97307       -2.46294       -2.73638
C          2.34617       -1.52907       -1.72394
C          1.42333       -0.57167       -1.26571
C          3.64056       -1.58294       -1.18877
C          4.54170       -2.56348       -1.60433
C          4.16024       -3.50430       -2.55701
C          2.88732       -3.45006       -3.12611
C         -1.44110       -1.00170       -3.50594
O         -1.99506       -1.52260       -4.44946
C         -1.83195        0.24838       -2.77551
C         -2.46939        1.22421       -3.44210
C         -2.52256        2.65300       -3.07856
C         -3.61996        3.41686       -3.49841
C         -3.62107        4.78586       -3.25885
C         -2.56824        5.38578       -2.53298
C         -1.48119        4.65007       -2.11065
C         -1.44345        3.29561       -2.43104
C         -2.82533        6.79294       -2.37824
C         -4.02055        7.10848       -3.04697
C         -4.64352        5.85125       -3.68519
C         -4.65914        6.05534       -5.23132
C         -5.26828        4.92851       -6.06143
C         -6.06973        5.59477       -3.13762
C         -6.17664        5.37433       -1.63076
C         -4.48752        8.41009       -3.07235
C         -3.76968        9.40297       -2.38846
C         -2.57398        9.07589       -1.72101
C         -2.09717        7.76473       -1.71064
C         -4.21364       10.79829       -2.38826
C         -5.50618       11.14181       -2.48000
C         -5.90583       12.49941       -2.50858
C         -5.29176       13.62515       -1.95888
C         -6.03568       14.78417       -2.22108
C         -7.16529       14.50310       -2.95067
S         -7.38519       12.90739       -3.32952
C         -7.86174       15.69986       -3.18329
C         -7.17085       16.73794       -2.60069
C         -5.97547       16.21452       -1.94809
C         -5.03049       16.88388       -1.26190
C         -5.10527       18.29120       -1.07681
N         -5.17187       19.44568       -0.92324
C         -3.90783       16.22963       -0.68500
N         -2.99753       15.69148       -0.22442
C         -7.81181       17.96839       -2.82527
C         -8.95040       17.79880       -3.61404
S         -9.23701       16.12884       -3.99494
C         -9.83356       18.81839       -4.11085
C        -10.57311       18.78701       -5.26757
C        -11.41228       19.94120       -5.48589
C        -12.33209       20.25659       -6.52965
C        -12.61307       19.26126       -7.61694
C        -12.82330       19.44246       -8.98007
C        -13.07870       18.23287       -9.69708
C        -12.99911       17.12204       -8.89063
S        -12.83401       17.58064       -7.25307
C        -13.06748       15.67518       -9.26042
Cl       -13.40936       18.22431      -11.37756
C        -12.99644       21.50722       -6.51951
C        -12.79813       22.42344       -5.47649
C        -11.86195       22.12087       -4.45627
C        -11.19707       20.87998       -4.46272
S        -10.04151       20.29052       -3.31630
C        -11.56352       23.12337       -3.38512
C        -11.36847       22.95589       -2.01863
C        -11.04200       24.16217       -1.32989
C        -11.08305       25.26071       -2.15561
S        -11.27935       24.78521       -3.78471
C        -10.91952       26.70399       -1.81115
Cl       -10.66782       24.18512        0.34104
C        -13.66948       23.55528       -5.63389
C        -14.46465       23.55269       -6.75133
S        -14.11396       22.16543       -7.67722
C        -15.44462       24.48055       -7.21147
C        -16.32878       25.12175       -6.42551
C        -17.51389       25.90990       -6.85191
C        -17.58193       26.77212       -7.89469
C        -18.73193       27.57047       -8.15069
N        -19.67262       28.21636       -8.35822
C        -16.48372       26.98899       -8.77983
N        -15.59478       27.14790       -9.50660
C        -18.55013       25.70522       -5.79340
C        -17.92410       25.11849       -4.68936
C        -16.50551       24.91556       -4.94766
O        -15.69995       24.70769       -4.06783
C        -18.56938       24.72634       -3.53036
C        -19.94269       24.92388       -3.45832
C        -20.62467       25.54014       -4.54701
C        -19.91809       25.92142       -5.71576
C        -22.00653       25.74331       -4.43215
C        -22.70022       25.33038       -3.29050
C        -22.02684       24.70368       -2.24481
C        -20.65188       24.50478       -2.32571
H          0.42211       -3.02653       -4.16264
H          1.72057        0.13692       -0.49747
H          3.96079       -0.86321       -0.43751
H          5.54066       -2.59734       -1.17656
H          4.85759       -4.27986       -2.86348
H          2.61491       -4.19060       -3.87534
H         -2.89867        0.99559       -4.41937
H         -4.44988        2.94800       -4.01703
H         -0.65826        5.11335       -1.57731
H         -0.53506        2.75910       -2.17771
H         -3.63831        6.23419       -5.59575
H         -5.22570        6.96558       -5.47267
H         -4.77538        3.97151       -5.88924
H         -5.15736        5.15035       -7.12788
H         -6.33757        4.81336       -5.86249
H         -6.50399        4.71223       -3.62070
H         -6.71731        6.44170       -3.40228
H         -5.68519        4.44406       -1.33094
H         -7.23128        5.29443       -1.34627
H         -5.74269        6.19953       -1.05960
H         -5.39326        8.64199       -3.62217
H         -2.00844        9.84316       -1.19524
H         -1.18007        7.52422       -1.18380
H         -3.42692       11.54506       -2.31692
H         -6.28542       10.38815       -2.55430
H         -4.36787       13.56544       -1.39758
H         -7.47854       18.93838       -2.47669
H        -10.51212       17.94544       -5.94290
H        -12.80286       20.40683       -9.47058
H        -13.68059       15.51617      -10.15333
H        -13.49745       15.06804       -8.45724
H        -12.06245       15.29165       -9.47333
H        -11.42870       22.00041       -1.51368
H        -11.28602       26.91243       -0.79959
H        -11.48464       27.35055       -2.49180
H         -9.86459       26.99038       -1.85706
H        -13.71456       24.35209       -4.90819
H        -15.51781       24.57186       -8.29291
H        -18.00671       24.25664       -2.72797
H        -20.47570       26.35343       -6.54112
H        -22.56113       26.22821       -5.23294
H        -23.77203       25.49524       -3.21926
H        -22.57124       24.36964       -1.36513
H        -20.14003       24.01144       -1.50082
