108

C          1.90353        1.73515       -1.87217
C          2.81493        2.73363       -1.87645
C          3.79476        2.85746       -2.90075
N          4.58255        2.96074       -3.74687
C          2.92281        3.65323       -0.79115
N          3.04724        4.39065        0.09559
C          1.88342        0.55749       -2.76078
C          1.38220       -0.52575       -2.01816
C          1.23608       -1.79283       -2.54756
C          1.52670       -1.96638       -3.90667
C          1.95019       -0.85613       -4.69856
C          2.14756        0.40508       -4.10987
C          2.13771       -1.03114       -6.07562
C          1.93446       -2.27778       -6.66764
C          1.55890       -3.36884       -5.88857
C          1.35662       -3.21577       -4.51671
C          0.86066       -0.05081       -0.71501
O          0.37418       -0.71676        0.17209
C          0.92876        1.44294       -0.82293
C         -0.10796        2.14543       -0.33858
C         -0.50471        3.41412       -0.86024
C         -0.39801        3.93047       -2.15926
C         -0.90012        5.24089       -2.24394
C         -1.45186        5.63662       -1.04956
S         -1.35981        4.52232        0.17650
C         -1.92944        6.95299       -1.18951
C         -1.65424        7.39963       -2.45952
C         -1.02486        6.32211       -3.22180
C         -0.66351        6.31347       -4.51696
C         -0.87333        7.44981       -5.35605
N         -1.05656        8.37735       -6.02724
C         -0.07011        5.17548       -5.11802
N          0.41713        4.22373       -5.56866
C         -1.99644        8.75911       -2.61038
C         -2.56441        9.28579       -1.44478
S         -2.69390        8.04609       -0.21433
C         -2.97757       10.60265       -1.13332
C         -3.51173       11.54706       -1.91219
C         -3.72151       12.77235       -1.20454
N         -3.34345       12.57205        0.08168
C         -2.84558       11.27479        0.22174
O         -2.37941       10.78104        1.23096
C         -3.41761       13.50671        1.17264
C         -4.20617       13.73111       -1.98859
C         -4.38176       13.07884       -3.32553
O         -4.83646       13.61945       -4.31860
N         -3.94819       11.75370       -3.18642
C         -4.03491       10.80677       -4.26224
C         -4.50035       15.07091       -1.69273
C         -5.70885       15.63228       -1.28050
C         -5.59253       17.02848       -1.12552
C         -4.31767       17.46730       -1.40993
S         -3.26547       16.28064       -1.89899
C         -4.24212       18.85010       -1.14223
C         -5.46779       19.27877       -0.69115
C         -6.41045       18.16728       -0.70884
C         -7.73109       18.19502       -0.44166
C         -8.40471       19.39613       -0.08137
N         -8.96928       20.36826        0.19515
C         -8.53173       17.02959       -0.54845
N         -9.18412       16.07289       -0.64677
C         -5.43998       20.63244       -0.30844
C         -4.16953       21.18903       -0.46000
S         -3.06929       20.02257       -1.17892
C         -3.64817       22.48908       -0.17770
C         -3.96037       23.27393        0.86934
C         -3.44543       24.63918        1.19111
C         -2.24867       25.17621        0.83581
C         -1.81002       26.45635        1.28400
N         -1.44679       27.49868        1.63996
C         -1.28787       24.48442        0.03661
N         -0.50922       23.92414       -0.61298
C         -4.40927       25.24099        2.16600
C         -5.27998       24.23534        2.59563
C         -5.00363       22.97193        1.91144
O         -5.53681       21.92173        2.20024
C         -6.29031       24.42541        3.52526
C         -6.46139       25.70168        4.05866
C         -5.61301       26.76101        3.63390
C         -4.59294       26.51931        2.68244
C         -5.81674       28.03965        4.17540
C         -6.82987       28.26955        5.11020
C         -7.65361       27.22568        5.52212
C         -7.47026       25.94723        4.99976
H          0.84297       -2.59847       -1.93457
H          2.44744        1.24873       -4.72671
H          2.42868       -0.19284       -6.70640
H          2.06866       -2.39543       -7.74001
H          1.41034       -4.34090       -6.35228
H          1.04984       -4.07980       -3.93110
H         -0.77904        1.67317        0.38052
H          0.03127        3.37276       -2.98085
H         -1.79657        9.35831       -3.48724
H         -4.41755       13.94625        1.21535
H         -2.66335       14.28545        1.03627
H         -3.22487       12.99479        2.12148
H         -4.70314       11.18131       -5.04360
H         -4.43027        9.85711       -3.89330
H         -3.04471       10.67472       -4.70321
H         -6.59629       15.03496       -1.10710
H         -6.27735       21.17874        0.10487
H         -2.92114       22.82793       -0.90823
H         -6.93122       23.59474        3.80865
H         -3.98048       27.35939        2.37069
H         -5.18702       28.87467        3.87387
H         -6.97675       29.26693        5.51703
H         -8.44184       27.40579        6.24888
H         -8.12536       25.14374        5.33169
