145

C         -2.89371        3.43002        4.62385
C         -4.10181        3.37462        4.01964
C         -5.27334        3.91803        4.61737
N         -6.20781        4.40117        5.10500
C         -4.28151        2.68055        2.78676
N         -4.44667        2.07404        1.81000
C         -2.62355        3.78076        6.03192
C         -1.52439        3.01060        6.44850
C         -1.06410        3.01072        7.75052
C         -1.68824        3.87065        8.66376
C         -2.72973        4.74507        8.23009
C         -3.19786        4.68857        6.90526
C         -3.28062        5.65588        9.14235
C         -2.85022        5.68173       10.46918
C         -1.86709        4.79608       10.90232
C         -1.28420        3.90130       10.00446
C         -0.89429        2.34306        5.28375
O          0.06901        1.60773        5.29063
C         -1.63864        2.88603        4.10416
C         -0.97766        3.15409        2.96419
C         -1.40796        4.13766        1.95038
C         -2.04435        5.33750        2.33051
C         -2.47508        6.21930        1.35689
C         -2.17743        5.97521        0.00299
C         -1.50062        4.83134       -0.38758
C         -1.12426        3.90571        0.59152
C         -2.70154        7.05563       -0.79090
C         -3.37058        7.96088        0.05392
C         -3.31450        7.50219        1.51023
C         -4.74280        7.19531        2.05182
C         -5.53651        6.12554        1.29697
C         -2.57122        8.53594        2.41199
C         -3.18540        9.93582        2.50398
C         -4.01267        9.06662       -0.46533
C         -3.92541        9.31594       -1.83603
C         -3.26085        8.40694       -2.67697
C         -2.64714        7.26682       -2.15691
C         -4.57452       10.48792       -2.41645
C         -4.66477       11.65351       -1.76117
C         -5.33888       12.75621       -2.33245
C         -6.40015       12.79426       -3.20169
C         -6.87576       14.11878       -3.51826
C         -7.91684       14.55161       -4.37735
C         -8.64127       13.56812       -5.25313
C         -9.98267       13.49251       -5.61761
C        -10.27623       12.44939       -6.54866
C         -9.16901       11.69252       -6.85084
S         -7.77372       12.33397       -6.10522
C         -9.06404       10.49012       -7.73178
Cl       -11.84627       12.21629       -7.19304
C         -8.23240       15.92723       -4.44830
C         -7.54291       16.89380       -3.69146
C         -6.50986       16.45947       -2.81101
C         -6.16285       15.08209       -2.78306
S         -4.83677       14.32236       -1.96164
C         -5.77850       17.45977       -1.95129
C         -5.44611       18.79303       -2.17374
C         -4.69513       19.39838       -1.11816
C         -4.36021       18.49382       -0.14086
S         -5.27567       17.06702       -0.33113
C         -3.41754       18.63938        1.00804
Cl        -4.22719       21.04399       -1.15816
C         -8.04254       18.21458       -4.01253
C         -9.00396       18.24251       -4.99408
S         -9.44414       16.67287       -5.42777
C         -9.58581       19.40893       -5.60709
C         -9.71020       20.68100       -5.04709
C        -10.27545       21.58289       -5.97085
C        -10.52861       20.97335       -7.18022
S        -10.16039       19.36416       -7.24936
C        -11.05679       21.92192       -8.07272
C        -11.15914       23.12290       -7.41598
C        -10.66640       22.99017       -6.05120
C        -10.59303       23.94122       -5.10362
C        -10.09615       23.65263       -3.80489
N         -9.69784       23.40253       -2.74217
C        -11.01805       25.28161       -5.33415
N        -11.38392       26.37067       -5.49508
C        -11.71834       24.10858       -8.23611
C        -11.88929       23.65694       -9.54546
S        -11.54636       21.94531       -9.65746
C        -12.32610       24.33886      -10.72040
C        -12.07543       25.63058      -11.00036
C        -12.58607       26.46783      -12.11818
C        -12.97640       26.04586      -13.35815
C        -13.36684       26.94215      -14.38280
N        -13.68909       27.67165      -15.22324
C        -12.96995       24.67056      -13.74202
N        -12.97358       23.55752      -14.05450
C        -12.43932       27.89425      -11.68129
C        -11.68622       27.91304      -10.50281
C        -11.29635       26.56428      -10.11474
O        -10.44722       26.32528       -9.28207
C        -11.34898       29.05758       -9.79796
C        -11.76778       30.28210      -10.30711
C        -12.52965       30.31874      -11.50764
C        -12.87313       29.11706      -12.17777
C        -12.92299       31.56985      -12.00629
C        -12.57758       32.74942      -11.34033
C        -11.83815       32.70058      -10.16164
C        -11.43594       31.47189       -9.64546
H         -0.22636        2.38008        8.03189
H         -3.98672        5.36382        6.58405
H         -4.05504        6.35440        8.83051
H         -3.28933        6.38985       11.16760
H         -1.54743        4.80556       11.94123
H         -0.51107        3.22495       10.36389
H          0.01633        2.73431        2.80704
H         -2.21969        5.58875        3.36926
H         -1.28491        4.64133       -1.43418
H         -0.61612        2.99614        0.27682
H         -5.34869        8.10908        2.02975
H         -4.68471        6.89084        3.10488
H         -5.55224        6.30118        0.21782
H         -6.57660        6.12179        1.64111
H         -5.13098        5.12747        1.47557
H         -1.53533        8.65611        2.06718
H         -2.50514        8.14006        3.43408
H         -3.03201       10.50098        1.57985
H         -2.69891       10.51546        3.29496
H         -4.25549        9.90927        2.72655
H         -4.57783        9.72340        0.18621
H         -3.21771        8.58574       -3.74822
H         -2.14349        6.56900       -2.81607
H         -4.96525       10.36411       -3.42157
H         -4.22319       11.78744       -0.77619
H         -6.84019       11.88156       -3.58008
H        -10.74353       14.17812       -5.26677
H         -9.49029        9.61021       -7.23657
H         -8.02520       10.25834       -7.98928
H         -9.60526       10.64829       -8.67041
H         -5.69340       19.34184       -3.06956
H         -2.64357       19.38485        0.79121
H         -2.89292       17.69892        1.21526
H         -3.94662       18.94904        1.91335
H         -7.66123       19.13276       -3.59425
H         -9.39981       20.91076       -4.03509
H        -11.92941       25.12308       -7.92938
H        -12.91989       23.72989      -11.39194
H        -10.77297       28.98136       -8.87957
H        -13.47662       29.19078      -13.07657
H        -13.49843       31.64064      -12.92700
H        -12.88646       33.71023      -11.74445
H        -11.57150       33.61919       -9.64448
H        -10.85610       31.45125       -8.72386
