112

C          2.61673        2.34979        2.81712
C          3.25189        3.40102        3.38189
C          4.63818        3.65834        3.15705
N          5.75400        3.87603        2.94806
C          2.58747        4.25568        4.31382
N          2.05769        4.93659        5.08461
C          3.25315        1.21481        2.12316
C          2.52510        0.05856        2.45240
C          2.88098       -1.19967        2.00700
C          3.95884       -1.29402        1.11461
C          4.63241       -0.11316        0.67712
C          4.28572        1.14227        1.20656
C          5.62966       -0.21808       -0.30152
C          5.99101       -1.46221       -0.81851
C          5.37136       -2.61885       -0.35331
C          4.35951       -2.53628        0.60459
C          1.26748        0.43645        3.14520
O          0.41464       -0.30355        3.58327
C          1.23369        1.93487        3.04528
C          0.05809        2.52984        2.77390
C         -0.05899        3.79618        2.11511
C          0.78594        4.40134        1.17841
C          0.35249        5.69784        0.84743
C         -0.89100        5.97077        1.36778
S         -1.49095        4.77404        2.35763
C         -1.28351        7.26321        0.94304
C         -0.24662        7.83076        0.23228
C          0.83657        6.85083        0.09458
C          2.00214        6.96906       -0.57847
C          2.35962        8.18766       -1.21309
N          2.64717        9.20211       -1.70346
C          2.92684        5.88063       -0.68111
N          3.65188        4.97706       -0.75265
C         -0.52946        9.17231       -0.11807
C         -1.86682        9.49930        0.14053
S         -2.65238        8.20898        1.02893
C         -2.58692       10.69930       -0.15614
C         -2.61012       11.69823        0.75896
C         -3.27856       12.86130        0.21486
C         -3.52994       14.05153        0.93845
N         -3.74401       15.01819        1.54010
C         -3.64339       12.62030       -1.05691
C         -3.25452       11.24507       -1.38544
C         -3.48296       10.63893       -2.57319
C         -3.95649       11.19213       -3.87197
C         -3.83376       10.20626       -4.79594
C         -3.44157        9.01111       -4.13435
C         -3.29053        9.22383       -2.81606
C         -3.28648        7.59995       -4.67746
N         -3.15781        6.42928       -5.12801
C         -4.34858       12.51722       -4.26170
C         -5.23162       12.75434       -5.24383
C         -5.56648       14.07253       -5.63354
C         -5.08132       15.28845       -5.15792
C         -5.59435       16.35768       -5.89905
C         -6.48416       15.93609       -6.86018
S         -6.72290       14.29882       -6.91770
C         -6.90218       17.05331       -7.60346
C         -6.24876       18.16228       -7.12094
C         -5.42153       17.79810       -5.98099
C         -4.69274       18.59276       -5.17229
C         -4.63749       20.00359       -5.34455
N         -4.59359       21.15522       -5.44914
C         -3.95487       18.06228       -4.07911
N         -3.35465       17.60816       -3.19343
C         -6.52579       19.29653       -7.89111
C         -7.47267       19.03719       -8.88178
S         -7.92333       17.34157       -8.87682
C         -8.13010       19.88787       -9.81979
C         -7.60907       20.97450      -10.41574
C         -8.29199       21.93242      -11.32475
C         -9.31357       21.67706      -12.18468
C         -9.84019       22.65379      -13.07566
N        -10.28148       23.44808      -13.79344
C         -9.91086       20.38911      -12.30924
N        -10.40825       19.34542      -12.41001
C         -7.50671       23.20341      -11.26563
C         -6.29870       22.93546      -10.61296
C         -6.24875       21.55501      -10.14632
O         -5.26059       21.06263       -9.64521
C         -5.30892       23.87382      -10.37529
C         -5.54395       25.17976      -10.80160
C         -6.76236       25.50491      -11.44027
C         -7.74299       24.51028      -11.67077
C         -6.97734       26.83265      -11.83170
C         -6.01115       27.81303      -11.58979
C         -4.81760       27.48236      -10.95271
C         -4.57798       26.17171      -10.55468
H          2.29821       -2.06879        2.29792
H          4.79434        2.03842        0.85785
H          6.12892        0.67183       -0.68124
H          6.76016       -1.52718       -1.58421
H          5.66755       -3.58814       -0.74658
H          3.88018       -3.45332        0.94111
H         -0.86271        1.96613        2.92904
H          1.67925        3.92568        0.79516
H          0.16676        9.86893       -0.56936
H         -2.17384       11.68763        1.74789
H         -4.19697       13.30818       -1.66901
H         -4.03470       10.25978       -5.85560
H         -3.14651        8.45733       -2.07205
H         -3.87399       13.32891       -3.72664
H         -5.69316       11.93241       -5.78678
H         -4.35548       15.36398       -4.36024
H         -6.06825       20.26120       -7.73172
H         -9.16400       19.61297      -10.00784
H         -4.40250       23.58362       -9.85213
H         -8.67638       24.79975      -12.14329
H         -7.90066       27.12181      -12.33037
H         -6.19121       28.83938      -11.89803
H         -4.06864       28.24657      -10.76199
H         -3.64656       25.92770      -10.05374
