106

C          1.69150        4.59546        5.68734
C          0.41764        4.82403        6.07848
C          0.09652        5.75045        7.10996
N         -0.15354        6.51658        7.94475
C         -0.67307        4.08819        5.52707
N         -1.55785        3.47806        5.08921
C          2.92853        5.12214        6.30054
C          3.95157        4.18569        6.07669
C          5.25660        4.39110        6.48557
C          5.57176        5.62228        7.07885
C          4.55972        6.61341        7.25131
C          3.23068        6.34540        6.87622
C          4.91340        7.86958        7.76425
C          6.23436        8.15010        8.11453
C          7.21641        7.17398        7.97200
C          6.88789        5.91764        7.45987
C          3.47090        3.11259        5.17237
O          4.07977        2.13214        4.80383
C          2.13307        3.60392        4.70127
C          1.84506        3.43869        3.39653
C          1.04030        4.34681        2.63457
C          0.21012        4.08340        1.53728
C         -0.38463        5.26675        1.03512
C          0.02818        6.36794        1.74420
S          1.16353        6.07647        2.90315
C         -0.62873        7.51084        1.26040
C         -1.44837        7.14781        0.21919
C         -1.31860        5.70429       -0.00802
C         -1.89862        4.96127       -0.96970
C         -2.75112        5.54290       -1.94746
N         -3.43926        6.02670       -2.74695
C         -1.66549        3.56344       -1.07305
N         -1.46752        2.42297       -1.15470
C         -2.16453        8.26096       -0.27497
C         -1.86544        9.41607        0.45362
S         -0.67536        9.11076        1.68270
C         -2.40983       10.74437        0.29438
C         -2.58526       11.70963        1.28882
C         -3.11393       12.89950        0.75216
C         -3.29648       12.80292       -0.61058
S         -2.91175       11.32619       -1.26295
C         -3.77067       14.03925       -1.09640
C         -3.91125       14.89917       -0.03364
C         -3.50334       14.23541        1.20063
C         -3.46827       14.74765        2.44641
C         -3.87368       16.08301        2.72502
N         -4.20553       17.17145        2.95889
C         -3.01079       13.98151        3.55326
N         -2.63259       13.35580        4.45258
C         -4.38907       16.15253       -0.44507
C         -4.52361       16.23520       -1.83490
S         -4.13064       14.70025       -2.57818
C         -4.96411       17.31561       -2.66559
C         -4.80019       18.61954       -2.38405
C         -5.48228       19.68883       -3.08933
C         -5.69704       20.75378       -2.29711
C         -5.18164       20.54717       -0.95158
S         -3.93598       19.31058       -1.02338
C         -5.74775       20.94190        0.20327
C         -5.35361       20.51136        1.53359
C         -6.35799       20.54641        2.41819
C         -7.58597       21.05292        1.84997
S         -7.30231       21.76901        0.27783
C         -8.81153       20.97916        2.38563
C         -9.12623       20.24486        3.58748
C         -9.64716       20.71773        4.72499
C        -10.20924       19.70095        5.67140
O         -9.99760       18.50790        5.71140
C        -11.16113       20.43460        6.51503
C        -11.12962       21.80505        6.22120
C        -12.01287       22.63925        6.89942
C        -12.91112       22.10133        7.85274
C        -12.90666       20.71292        8.12991
C        -12.01737       19.87059        7.44756
C        -13.80461       20.09388        9.06678
N        -14.51007       19.50760        9.77683
C        -13.79970       23.01745        8.62420
O        -14.16294       22.76784        9.75850
O        -14.16304       24.14748        7.98673
C        -10.05145       22.04649        5.20484
C         -9.45185       23.23441        4.96264
C         -8.23997       23.38553        4.23250
N         -7.23308       23.60135        3.69715
C         -9.92459       24.45816        5.50241
N        -10.35452       25.44532        5.94276
H          6.01730        3.64406        6.27787
H          2.47775        7.12200        6.98162
H          4.16510        8.65169        7.88093
H          6.49646        9.13390        8.49631
H          8.24427        7.39435        8.24937
H          7.67628        5.17655        7.34482
H          2.37955        2.67790        2.82713
H          0.05203        3.07851        1.16217
H         -2.88518        8.24984       -1.08408
H         -2.32868       11.53639        2.32749
H         -4.61191       16.97725        0.21705
H         -5.55170       17.04621       -3.54208
H         -5.84032       19.60156       -4.10503
H         -6.24489       21.63901       -2.58733
H         -4.36949       20.13264        1.77527
H         -6.26478       20.22154        3.44534
H         -9.66005       21.39144        1.84258
H         -8.99772       19.16320        3.47588
H        -12.00371       23.70830        6.73380
H        -11.99533       18.79684        7.62994
H        -13.92733       24.26771        7.05068
