111

C          2.52865        4.61344        3.24268
C          1.83408        3.73385        3.99585
C          1.56948        3.97285        5.37325
N          1.34103        4.20425        6.48715
C          1.43688        2.46885        3.46921
N          1.15877        1.42447        3.04626
C          3.27088        5.79817        3.70841
C          4.41696        5.92047        2.90301
C          5.34229        6.93155        3.07370
C          5.05152        7.92660        4.01856
C          3.83168        7.87828        4.76044
C          2.95746        6.78682        4.62276
C          3.49956        8.94952        5.60054
C          4.36144       10.03720        5.74002
C          5.57641       10.05759        5.06051
C          5.92002        9.00974        4.20487
C          4.32586        4.98227        1.75366
O          5.14154        4.79977        0.87732
C          2.93043        4.43567        1.85091
C          2.19598        4.37616        0.72521
C          0.76762        4.52828        0.68506
S         -0.02162        5.74258        1.61176
C         -1.59734        5.34521        1.06788
C         -1.52101        4.33247        0.11467
C         -0.15051        3.93032       -0.16430
C          0.20430        2.94156       -1.24316
C         -0.97918        2.58920       -2.14909
C         -2.30393        2.44157       -1.39372
C         -2.29169        1.25930       -0.44827
O         -3.30660        0.62515       -0.17037
C         -2.67841        3.71895       -0.63350
C         -2.74182        6.12648        1.54592
S         -3.96545        6.63424        0.46202
C         -4.79170        7.63095        1.61092
C         -4.12850        7.54955        2.83836
C         -3.00053        6.62327        2.82047
C         -2.19849        6.33115        4.06761
C         -2.86321        6.82190        5.35626
C         -3.44982        8.22525        5.22254
C         -2.40128        9.29907        5.04241
O         -2.56705       10.45651        5.41799
C         -4.48274        8.28797        4.10172
C         -5.98253        8.40128        1.18572
S         -6.05172        9.03100       -0.43324
C         -7.58537        9.75802       -0.23316
C         -8.06315        9.54782        1.04267
C         -7.14581        8.77605        1.86883
C         -7.48539        8.51918        3.31172
C         -8.88844        8.94317        3.75036
C         -9.35401       10.24083        3.08686
C         -8.47568       11.41458        3.48123
O         -8.64614       12.05769        4.51344
C         -9.37616       10.07303        1.56848
C         -8.14383       10.51136       -1.31034
C         -9.00515        9.99353       -2.20118
C         -9.39789       10.53534       -3.52069
C         -9.71437       11.81663       -3.82003
C        -10.16230       12.22131       -5.10674
N        -10.52319       12.55663       -6.15632
C         -9.68420       12.84170       -2.82216
N         -9.64713       13.66012       -2.00075
C         -9.51369        9.34952       -4.41966
C         -9.53509        8.19873       -3.61486
C         -9.43303        8.55940       -2.19576
O         -9.69727        7.84514       -1.25312
C         -9.51178        6.91094       -4.11384
C         -9.44405        6.74974       -5.49621
C         -9.46424        7.89056       -6.34998
C         -9.49911        9.19241       -5.79856
C         -9.41765        7.69124       -7.73795
C         -9.31515        6.40310       -8.27277
C         -9.24954        5.29728       -7.42930
C         -9.32544        5.46772       -6.04912
H          6.21832        6.98600        2.43404
H          2.02423        6.76339        5.17843
H          2.55519        8.95984        6.14157
H          4.08270       10.87036        6.38078
H          6.25224       10.89999        5.18391
H          6.86687        9.05819        3.67087
H          2.70924        4.37758       -0.23633
H          0.59941        2.03168       -0.77661
H          1.00826        3.35053       -1.86873
H         -0.74585        1.67079       -2.70129
H         -1.09687        3.38202       -2.90081
H         -3.09414        2.23214       -2.12684
H         -1.33816        1.02944        0.05514
H         -3.49909        3.51217        0.06387
H         -3.03626        4.45363       -1.36542
H         -1.21987        6.81510        3.98744
H         -2.02517        5.25194        4.15449
H         -2.13619        6.78943        6.17638
H         -3.67296        6.13032        5.62644
H         -3.95839        8.47298        6.16525
H         -1.49170        9.02382        4.48625
H         -4.70636        9.33371        3.86230
H         -5.37142        7.79998        4.51022
H         -6.81516        9.13504        3.91276
H         -7.33229        7.46348        3.55905
H         -8.89181        9.05509        4.84269
H         -9.59958        8.14202        3.51579
H        -10.36666       10.47941        3.43373
H         -7.60325       11.62317        2.83670
H         -9.62229       11.02999        1.09374
H        -10.16540        9.36010        1.29640
H         -7.72849       11.50525       -1.44442
H         -9.48959        6.06411       -3.43054
H         -9.46052       10.04317       -6.47219
H         -9.45168        8.53701       -8.42268
H         -9.26423        6.26640       -9.35013
H         -9.13607        4.29880       -7.84831
H         -9.26491        4.59096       -5.40851
