110

C         -1.51375        3.02587        1.96721
C         -2.72684        3.54267        1.66758
C         -3.40659        3.20180        0.47306
N         -3.94983        2.89561       -0.50370
C         -3.43875        4.35594        2.58867
N         -4.04887        4.97206        3.36496
C         -0.82892        1.91486        1.27742
C         -0.14627        1.17854        2.26309
C          0.58216        0.04163        1.97078
C          0.70997       -0.32422        0.62395
C          0.10830        0.47450       -0.39630
C         -0.68415        1.58450       -0.05493
C          0.33975        0.15252       -1.74040
C          1.12350       -0.94902       -2.08460
C          1.67112       -1.75454       -1.09020
C          1.46678       -1.44467        0.25544
C         -0.17385        1.91279        3.55249
O          0.29359        1.55950        4.61301
C         -0.77991        3.23972        3.20315
C         -0.25591        4.34580        3.75997
C         -0.24891        5.65236        3.16838
C         -0.15235        6.87679        3.81996
C         -0.02755        7.97646        2.92618
C         -0.04571        7.58094        1.60727
S         -0.15399        5.90393        1.45247
C          0.06738        8.53725        0.55443
C          0.32711        9.84490        0.89372
C          0.50767       10.23339        2.33149
O          0.06611        9.27483        3.33279
C          0.42848       10.67300       -0.26063
C          0.21454        9.97418       -1.43815
S         -0.08195        8.30373       -1.10871
C          0.23220       10.48351       -2.78871
C         -0.48277       10.00347       -3.85996
C         -0.13040       10.60122       -5.12038
C          0.70265       11.70176       -4.92260
S          1.17159       11.82688       -3.25972
C          1.07388       12.55011       -5.98496
O          1.89836       13.62707       -5.67057
C          1.59852       14.86531       -6.31258
C          0.67278       12.24574       -7.30802
C         -0.14480       11.13024       -7.50582
C         -0.52326       10.28832       -6.44010
O         -1.39023        9.23703       -6.72114
C         -1.04424        7.95621       -6.19150
S         -0.59992       10.98397       -9.16707
C          0.31799       12.33851       -9.64919
C          0.98132       12.87349       -8.56885
C          0.41262       12.79231      -11.01741
C          1.48483       13.45054      -11.60257
C          1.30290       13.63565      -12.99806
C          0.07412       13.17950      -13.42150
S         -0.86759       12.58543      -12.14757
C         -0.26380       13.17705      -14.80208
C          0.70268       13.54344      -15.70315
C          2.07235       13.94673      -15.24288
O          2.23891       14.19492      -13.81766
C          0.23429       13.40364      -17.04243
C         -1.04011       12.86176      -17.12413
S         -1.71127       12.71301      -15.52820
C         -1.86551       12.46117      -18.22028
C         -1.46116       11.95466      -19.39897
C         -2.29421       11.54606      -20.57026
C         -3.57961       11.10062      -20.55843
C         -4.24771       10.62856      -21.72437
N         -4.80144       10.24402      -22.66953
C         -4.35531       10.99927      -19.36666
N         -4.99595       10.92125      -18.40260
C         -1.38093       11.51617      -21.75613
C         -0.06783       11.64206      -21.29400
C         -0.03237       11.79546      -19.84180
O          0.99291       11.75282      -19.19621
C          1.05129       11.63676      -22.11096
C          0.86173       11.49278      -23.48308
C         -0.45669       11.37227      -24.00140
C         -1.57207       11.39722      -23.12784
C         -0.61678       11.22613      -25.38813
C          0.49142       11.19957      -26.24042
C          1.77767       11.31979      -25.72145
C          1.96253       11.46702      -24.34900
H          1.08695       -0.50156        2.76504
H         -1.12818        2.19498       -0.83886
H         -0.07679        0.76695       -2.53680
H          1.30554       -1.17816       -3.13193
H          2.27038       -2.62005       -1.36204
H          1.91745       -2.08151        1.01411
H          0.34741        4.23307        4.66227
H         -0.14632        6.97768        4.89748
H         -0.04600       11.16080        2.52294
H          1.56842       10.43525        2.51780
H          0.64147       11.73585       -0.23335
H         -1.20045        9.19880       -3.76051
H          1.64958       15.66753       -5.57055
H          0.60539       14.90760       -6.77319
H          2.37397       15.06491       -7.05965
H         -1.97745        7.46770       -5.88963
H         -0.37691        7.96541       -5.32739
H         -0.57310        7.34348       -6.96466
H          1.64612       13.71944       -8.67479
H          2.39242       13.72056      -11.07783
H          2.37147       14.86681      -15.75703
H          2.79307       13.16733      -15.51976
H          0.85192       13.63293      -17.90067
H         -2.92697       12.58213      -18.02674
H          2.04139       11.74524      -21.67588
H         -2.56214       11.32336      -23.56637
H         -1.60967       11.12520      -25.82239
H          0.34900       11.08285      -27.31115
H          2.63912       11.29709      -26.38469
H          2.97550       11.55714      -23.96060
