102

C          3.68743        2.96419       -0.24763
C          3.09363        3.00473       -1.46380
C          3.84949        2.92185       -2.66898
N          4.48663        2.83573       -3.64173
C          1.67130        2.99361       -1.59088
N          0.51773        2.95208       -1.69296
C          5.11408        2.69033        0.00960
C          5.18976        1.87571        1.14869
C          6.39353        1.49860        1.71837
C          7.56348        2.09180        1.21916
C          7.49197        3.00299        0.12188
C          6.26534        3.24628       -0.52367
C          8.64322        3.71278       -0.25002
C          9.84542        3.53346        0.43591
C          9.92822        2.60361        1.46823
C          8.79839        1.87731        1.84917
C          3.84649        1.78340        1.78024
O          3.53296        1.10929        2.73760
C          3.02021        2.82792        1.05213
C          2.25564        3.63621        1.81708
C          1.92066        5.02918        1.57610
S          2.47365        5.89788        0.15163
C          1.77187        7.36936        0.68822
C          1.81251        7.30824        2.07384
C          1.29565        5.98216        2.39932
C          0.45214        5.79531        3.52490
C         -0.64315        4.81303        3.62530
O         -1.60441        4.93073        4.36684
O         -0.60540        3.84853        2.70015
C          0.36153        6.93946        4.37571
C          1.00066        8.18132        4.11831
C          1.68215        8.42289        2.92323
O          2.26493        9.62177        2.66453
C          0.86154        8.15735       -0.13070
C          0.62706        9.52649       -0.19654
C         -0.80924        9.74189       -0.16459
C         -1.62269       10.81766        0.28047
C         -3.02167       10.75776        0.17837
C         -3.63300        9.68562       -0.46108
C         -2.86722        8.61917       -0.92922
C         -1.47584        8.63740       -0.70836
S         -0.38495        7.34965       -1.00901
C         -3.82187       11.78021        0.78504
N         -4.46769       12.59367        1.30702
C          1.73165       10.54880       -0.05187
S          1.54683       12.14996        0.51580
C          3.21296       12.25807        1.02445
C          3.89599       11.18135        0.47076
C          3.05736       10.39542       -0.41165
C          3.57669        9.47992       -1.34664
C          2.84907        8.91474       -2.49239
O          3.10327        7.86302       -3.03871
O          1.94340        9.78502       -2.97987
C          4.97517        9.29774       -1.24074
C          5.78166        9.96009       -0.26594
C          5.27360       10.93483        0.61459
O          6.05640       11.53963        1.55061
C          3.71004       13.43579        1.67941
C          3.08845       14.13969        2.63764
C          3.39993       15.50418        3.13906
C          4.62419       16.04574        3.34983
C          4.80567       17.30622        3.98885
N          4.95283       18.32653        4.52038
C          5.83434       15.35877        3.03205
N          6.82838       14.82495        2.77255
C          2.09285       16.09168        3.56804
C          1.15248       15.05373        3.63429
C          1.77569       13.77294        3.26384
O          1.33956       12.67147        3.52242
C         -0.17601       15.23719        3.97369
C         -0.59849       16.52884        4.29332
C          0.32645       17.61066        4.25177
C          1.66789       17.38227        3.86239
C         -0.12256       18.89248        4.61122
C         -1.44743       19.10584        5.00128
C         -2.35004       18.04684        5.02061
C         -1.92962       16.76658        4.66306
H          6.40696        0.87117        2.60504
H          6.21395        3.94916       -1.35117
H          8.60360        4.45213       -1.04776
H         10.71610        4.12840        0.16976
H         10.86816        2.46077        1.99590
H          8.88369        1.17421        2.67535
H          2.04269        3.28963        2.82725
H         -1.48521        3.42026        2.77326
H         -0.29357        6.89327        5.24970
H          0.87575        8.98831        4.83948
H          1.95362       10.30400        3.28999
H         -1.17279       11.66413        0.79097
H         -4.71626        9.64541       -0.56662
H         -3.34273        7.75838       -1.39201
H          1.57286        9.35402       -3.77809
H          5.46754        8.63408       -1.95368
H          6.84577        9.72934       -0.25178
H          6.79217       10.93807        1.75957
H          4.64601       13.79782        1.25674
H         -0.85746       14.39162        3.98179
H          2.33851       18.23481        3.79881
H          0.55986       19.74054        4.60628
H         -1.77589       20.10105        5.29215
H         -3.38218       18.21371        5.31924
H         -2.65204       15.95254        4.68409
