106

C         -3.68370        1.72402        1.68784
C         -4.95156        1.89875        2.11194
C         -5.89127        0.82592        2.11521
N         -6.63791       -0.05871        2.11777
C         -5.38117        3.13250        2.68281
N         -5.71999        4.13678        3.14672
C         -3.07281        0.45521        1.21549
C         -1.71323        0.48502        1.56021
C         -0.78070       -0.39779        1.04173
C         -1.20828       -1.26611        0.02987
C         -2.58689       -1.31721       -0.33838
C         -3.52783       -0.48195        0.29895
C         -2.96989       -2.13100       -1.41503
C         -2.01740       -2.83917       -2.15120
C         -0.67157       -2.76846       -1.80411
C         -0.27151       -2.00304       -0.70853
C         -1.37924        1.80861        2.13476
O         -0.36002        2.11379        2.71428
C         -2.55728        2.67232        1.77950
C         -2.51537        3.90595        1.23670
C         -1.33046        4.67930        0.98102
S         -1.47728        6.41670        1.07993
C          0.21942        6.68104        0.91423
C          0.86019        5.46031        1.04730
C         -0.02388        4.39845        0.59093
C          0.48854        3.19762        0.04338
C         -0.28104        2.28685       -0.82970
O         -1.48324        2.22330       -0.96739
O          0.53414        1.51425       -1.57492
C          1.88752        3.03958        0.24131
C          2.71813        4.01605        0.85879
C          2.24431        5.27974        1.22719
O          3.11054        6.18323        1.78026
C          0.77423        7.97817        0.54940
C          1.93445        8.19228       -0.20608
C          2.17547        9.56346       -0.46457
C          1.20991       10.32703        0.13099
S          0.01556        9.48899        0.93213
C          1.54183       11.67905       -0.05098
C          2.74528       11.79956       -0.72380
C          3.19608       10.43619       -1.11586
C          4.18364        9.96212       -1.93415
C          3.93016        8.54662       -2.42661
N          3.71987        7.37235       -2.83515
C          5.32323       10.77855       -2.52166
N          6.26862       11.45585       -3.00905
C          3.08835       13.18645       -0.81318
C          2.10887       14.02669       -0.22465
S          0.77543       13.08002        0.36930
C          2.09096       15.48232       -0.01630
S          1.27882       16.17238        1.36088
C          1.89494       17.78429        1.10750
C          2.88054       17.68837        0.13858
C          2.67506       16.52089       -0.71869
C          3.22748       16.42545       -2.00595
C          2.75645       15.52146       -3.06092
O          3.43759       15.03871       -3.94661
O          1.42135       15.40516       -3.03616
C          4.13242       17.46605       -2.31398
C          4.46344       18.51638       -1.40465
C          3.83821       18.67497       -0.15269
O          4.18902       19.67286        0.71151
C          1.32831       18.81358        1.93877
C          1.14498       20.11748        1.65054
C          0.60011       21.16199        2.55998
C         -0.48606       21.06406        3.36162
C         -1.01561       22.17472        4.07983
N         -1.43979       23.07723        4.67076
C         -1.24457       19.86430        3.47007
N         -1.86194       18.88817        3.55743
C          1.30093       22.42934        2.21009
C          1.89948       22.25420        0.95751
C          1.63205       20.89052        0.45432
O          1.70832       20.54838       -0.70551
C          2.67016       23.23104        0.34638
C          2.85719       24.44933        1.01849
C          2.23721       24.65983        2.28267
C          1.46870       23.63787        2.87496
C          2.40893       25.89065        2.93437
C          3.19576       26.89523        2.36985
C          3.82584       26.68096        1.14814
C          3.65584       25.46879        0.47466
H          0.27208       -0.27776        1.28234
H         -4.55751       -0.47161       -0.04880
H         -4.01168       -2.18330       -1.72627
H         -2.32594       -3.43015       -3.01051
H          0.07103       -3.29833       -2.39634
H          0.78927       -1.94560       -0.47053
H         -3.44694        4.35758        0.89779
H         -0.07869        0.99038       -2.13434
H          2.36580        2.11831       -0.09294
H          3.77210        3.78582        1.00819
H          2.57574        6.84763        2.25050
H          2.55183        7.36696       -0.53732
H          4.00263       13.56719       -1.25316
H          1.17673       14.92663       -3.85313
H          4.58711       17.48197       -3.30549
H          5.19565       19.25101       -1.73407
H          4.84711       20.23150        0.26618
H          0.97572       18.45664        2.90564
H          3.12946       23.03559       -0.61829
H          1.04095       23.81257        3.85769
H          1.92736       26.08262        3.89154
H          3.31752       27.84383        2.88745
H          4.44784       27.46151        0.71578
H          4.15800       25.32833       -0.48018
