97

C         -5.17830        5.07136       -0.97931
C         -5.87179        3.97153       -0.59500
C         -7.29392        3.92237       -0.65098
N         -8.45167        3.89717       -0.69005
C         -5.21711        2.78799       -0.14105
N         -4.70095        1.83905        0.28266
C         -5.73428        6.34559       -1.50652
C         -4.74365        6.95227       -2.29835
C         -4.83649        8.22804       -2.80896
C         -5.91680        9.00027       -2.39546
C         -6.91935        8.44074       -1.54640
C         -6.84647        7.08732       -1.14481
C         -7.92143        9.28611       -1.05003
C         -7.92133       10.64886       -1.36000
C         -6.94614       11.18104       -2.19968
C         -5.95787       10.35627       -2.72836
C         -3.47545        6.21867       -2.18356
O         -2.44609        6.46169       -2.77866
C         -3.72506        5.23267       -1.08539
C         -2.79228        4.91543       -0.17526
C         -1.49759        5.50868       -0.15655
S         -1.31718        7.03109        0.65144
C          0.40127        6.99360        0.61095
C          0.80313        5.75701        0.12302
C         -0.26577        5.07620       -0.60684
C         -0.01721        4.00976       -1.49761
C         -0.96072        3.47125       -2.50101
O         -2.09664        3.09753       -2.28310
O         -0.38725        3.40310       -3.72768
C          1.32892        3.56139       -1.46726
C          2.34112        4.13593       -0.64448
C          2.12318        5.27280        0.15123
O          3.08922        5.77944        0.96689
C          1.21614        8.17334        0.89317
C          1.01835        9.35135        1.62396
C         -0.13016        9.69512        2.43240
O         -0.60389       10.82020        2.48748
O         -0.66058        8.69175        3.17870
C          2.13044       10.20332        1.26172
N          2.94380        9.55740        0.42004
O          2.40299        8.32192        0.22162
C          2.41426       11.66720        1.58240
S          3.30865       12.67150        0.48701
C          2.63738       14.15352        1.13187
C          1.73095       13.79748        2.12485
C          2.00661       12.45827        2.63714
C          1.63765       12.05529        3.93654
C          2.20558       10.93354        4.70513
O          2.05908       10.75755        5.90138
O          3.00681       10.12899        3.99191
C          0.80863       13.00048        4.59360
C          0.36350       14.21934        3.99970
C          0.82158       14.66957        2.74964
O          0.38305       15.83955        2.19672
C          3.08780       15.38566        0.53721
C          3.26527       16.56725        1.16075
C          3.55010       17.90291        0.56265
C          4.42574       18.18459       -0.43151
C          4.72815       19.51656       -0.83447
N          4.97156       20.60576       -1.16183
C          5.17255       17.16976       -1.08791
N          5.78206       16.33984       -1.63150
C          2.84745       18.90143        1.42330
C          2.47538       18.25549        2.60855
C          2.95953       16.86566        2.59911
O          3.16431       16.18664        3.58333
C          1.70718       18.84761        3.59755
C          1.31341       20.17851        3.42099
C          1.73706       20.89226        2.26480
C          2.48605       20.23474        1.25988
C          1.39146       22.24861        2.14580
C          0.61897       22.88215        3.12280
C          0.16125       22.16531        4.22381
C          0.50647       20.82183        4.37325
H         -4.01172        8.64574       -3.38331
H         -7.58928        6.69350       -0.45641
H         -8.68566        8.90419       -0.37685
H         -8.67644       11.30234       -0.92936
H         -6.93920       12.24381       -2.42600
H         -5.18850       10.79443       -3.36270
H         -3.04475        4.30669        0.68999
H          0.44373        3.90774       -3.82328
H          1.60769        2.70909       -2.09056
H          3.32530        3.66996       -0.65864
H          3.92778        5.31902        0.79571
H         -0.25060        7.81921        3.03582
H          3.42282        9.54238        4.65807
H          0.48146       12.78372        5.61196
H         -0.31623       14.83981        4.57992
H         -0.27242       16.22442        2.80180
H          3.29085       15.32079       -0.52988
H          1.41362       18.27352        4.47136
H          2.74519       20.79160        0.36346
H          1.73062       22.83325        1.29252
H          0.37218       23.93676        3.02174
H         -0.45576       22.65454        4.97385
H          0.14167       20.28234        5.24479
