132

C          0.78450        7.30451       -7.79192
C          0.83401        6.31694       -8.72247
C          0.29206        6.46227      -10.03094
N         -0.19466        6.56515      -11.09707
C          1.40062        5.03210       -8.42952
N          1.85315        3.99271       -8.16838
C          0.22130        8.69837       -7.96657
C          0.51748        9.41811       -6.79876
C         -0.11718       10.60288       -6.45213
C         -1.03458       11.16760       -7.34395
C         -1.24844       10.56234       -8.61137
C         -0.64091        9.29910       -8.89588
C         -2.11101       11.22503       -9.51397
C         -2.76545       12.41523       -9.16243
C         -2.62892       12.93128       -7.87892
C         -1.77549       12.30352       -6.97328
C          1.32962        8.62222       -5.85974
O          1.94130        9.04144       -4.90250
C          1.21311        7.21394       -6.34302
C          0.96755        6.20500       -5.46853
C          0.80526        6.22382       -3.96710
C          1.80116        5.31948       -3.20190
C          2.14903        4.05055       -3.72331
C          2.95775        3.13682       -3.01628
C          3.43860        3.45903       -1.74905
C          3.18198        4.73208       -1.24468
C          2.39841        5.65024       -1.97375
C          4.19938        2.49196       -0.91599
O          4.89092        2.75247        0.05022
O          3.97150        1.21601       -1.28097
C         -0.29006        6.80907       -3.31950
C         -1.53905        7.46642       -3.97405
C         -2.63916        7.97112       -3.23739
C         -3.68638        8.72286       -3.83721
C         -3.65425        9.00518       -5.19902
C         -2.67879        8.38763       -5.95047
C         -1.70687        7.59457       -5.34239
C         -4.60077        9.94331       -5.85252
O         -5.44440       10.62128       -5.30040
O         -4.36441       10.03533       -7.17695
C         -0.36158        6.83326       -1.82922
C         -0.01651        7.85390       -1.01531
C         -0.24138        7.88554        0.41381
C          0.51958        8.78229        1.06922
C          1.44064        9.49324        0.19519
S          0.87353        9.28612       -1.48551
C          2.64167       10.03016        0.51933
C          3.65185       10.41233       -0.45007
C          4.90482       10.30632        0.02237
C          4.98736        9.88611        1.42727
S          3.38498       10.08922        2.14737
C          6.09597        9.29181        1.93324
C          6.61356        8.65438        3.21558
C          7.83897        9.44883        3.83087
C          8.34151        9.24800        5.12623
C          9.51794        9.84438        5.61266
C         10.20476       10.77786        4.85815
C          9.64940       11.15631        3.63861
C          8.49422       10.49733        3.13626
C         11.47445       11.30618        5.41331
O         12.01549       10.94233        6.44433
O         12.03131       12.26330        4.65231
C          6.24272        7.37444        3.67940
C          4.94787        6.59598        3.33958
C          4.08408        6.94385        2.31818
C          2.81324        6.38949        2.15307
C          2.41847        5.30605        2.91069
C          3.30300        4.78971        3.83853
C          4.50579        5.47592        4.09404
C          1.09453        4.69233        2.70779
O          0.82867        3.51156        2.77709
O          0.15203        5.62493        2.49286
C          7.09787        6.65111        4.69379
C          7.70671        5.44204        4.64170
C          8.11811        4.62875        5.81338
C          9.07067        4.93193        6.72965
C          9.44388        4.03991        7.76646
N          9.70454        3.29717        8.63344
C          9.86065        6.11020        6.64135
N         10.56444        7.02725        6.59219
C          7.45112        3.31142        5.63850
C          7.05905        3.21027        4.29104
C          7.44343        4.44398        3.55223
O          7.54559        4.59357        2.35605
C          6.26442        2.17793        3.82048
C          5.87930        1.17096        4.72204
C          6.33527        1.20721        6.07168
C          7.10281        2.29864        6.52772
C          5.99518        0.15425        6.93779
C          5.19131       -0.90011        6.50136
C          4.69314       -0.90198        5.20227
C          5.03356        0.12599        4.31984
H          0.03722       11.01692       -5.45916
H         -0.94984        8.79469       -9.80839
H         -2.28327       10.82212      -10.51061
H         -3.39482       12.93144       -9.88508
H         -3.17451       13.82479       -7.58134
H         -1.70210       12.70359       -5.96289
H          0.67588        5.23252       -5.86250
H          1.79169        3.72298       -4.69669
H          3.19434        2.17255       -3.46233
H          3.58154        5.01456       -0.27294
H          2.26670        6.63252       -1.53765
H          4.45594        0.69212       -0.60849
H         -2.72472        7.79558       -2.16662
H         -4.50764        9.09568       -3.22890
H         -2.62993        8.52941       -7.02460
H         -1.07928        7.08433       -6.03273
H         -4.85054       10.82264       -7.49472
H         -0.82805        5.94351       -1.40732
H         -0.92521        7.20597        0.90231
H          0.54213        8.86234        2.14824
H          3.41479       10.63838       -1.48392
H          5.76985       10.44733       -0.61328
H          6.91489        9.22285        1.20356
H          7.84908        8.62735        5.85239
H          9.89295        9.55678        6.59406
H         10.10748       11.95478        3.05856
H          8.12696       10.85485        2.17718
H         12.85758       12.47294        5.13874
H          4.35575        7.67475        1.58952
H          2.16515        6.80000        1.39236
H          3.05289        3.88661        4.38952
H          5.08329        5.07770        4.91965
H         -0.67622        5.11040        2.41259
H          6.92829        7.03233        5.69788
H          5.91579        2.18923        2.79051
H          7.36975        2.34544        7.57956
H          6.36122        0.13771        7.96329
H          4.94839       -1.71631        7.17818
H          4.04450       -1.70948        4.87092
H          4.62795        0.10457        3.31038
