126

C          0.55788        1.33005       -2.51991
C         -0.34462        1.20538       -3.51816
C         -1.04644       -0.01866       -3.73582
N         -1.56850       -1.03825       -3.92949
C         -0.47121        2.21050       -4.51948
N         -0.55440        3.03323       -5.33455
C          0.98470        0.23860       -1.63169
C          2.38587        0.22261       -1.63294
C          3.11528       -0.67462       -0.87618
C          2.41417       -1.44651        0.06470
C          0.99779       -1.30674        0.19380
C          0.27555       -0.51370       -0.71402
C          0.34977       -1.90833        1.28158
C          1.06725       -2.66582        2.20785
C          2.43079       -2.88001        2.02725
C          3.09952       -2.28190        0.95758
C          2.88096        1.48206       -2.26035
O          4.03161        1.80606       -2.45239
C          1.62981        2.31932       -2.44994
C          1.67509        3.63548       -2.16464
C          0.56740        4.46246       -1.73252
C          0.33778        5.84683       -1.91648
C          1.23514        6.62481       -2.70993
N          2.02897        7.19516       -3.33484
C         -0.79934        6.30264       -1.19072
C         -1.34926        5.30409       -0.46100
S         -0.61677        3.81713       -0.61928
S         -2.66720        5.75856        0.47951
C         -2.52871        7.32098       -0.13073
C         -1.51383        7.51110       -1.00426
C         -1.47669        8.85636       -1.49001
C         -0.53026        9.40632       -2.40941
N          0.21911        9.88668       -3.15235
C         -2.52722        9.63335       -0.94599
S         -3.46432        8.66204        0.17090
C         -2.95979       11.02793       -1.15372
C         -3.61363       11.84504       -0.24829
C         -4.00686       13.17367       -0.72059
C         -4.65416       14.27543       -0.07112
C         -4.98243       14.19831        1.37478
C         -6.07467       14.70526        2.06508
C         -6.02466       14.47770        3.46660
C         -4.93596       13.72025        3.82355
S         -3.89139       13.48560        2.49990
C         -4.56608       13.15322        5.14675
Cl        -7.22706       15.08388        4.51975
C         -5.00701       15.45163       -0.78872
C         -4.74407       15.55494       -2.15712
C         -4.05131       14.47501       -2.80539
C         -3.68309       13.30524       -2.07637
S         -2.79902       11.88451       -2.60977
C         -3.76281       14.55262       -4.26905
C         -3.70356       13.55350       -5.23350
C         -3.51565       14.03870       -6.55988
C         -3.44290       15.40948       -6.59916
S         -3.34527       16.04790       -5.02582
C         -3.40006       16.32530       -7.77171
Cl        -3.45546       12.98913       -7.90813
C         -5.29546       16.81121       -2.64991
C         -5.89818       17.65499       -1.73313
S         -5.75677       16.93722       -0.20772
C         -6.55443       18.94011       -2.03722
C         -6.84143       20.09987       -1.27813
C         -6.49810       20.20288        0.10376
N         -6.19693       20.25527        1.22374
C         -7.43117       21.12320       -2.08780
C         -7.58106       20.72000       -3.37000
S         -7.11700       19.16061       -3.68400
S         -8.19172       21.87208       -4.42792
C         -8.27011       22.95290       -3.14584
C         -7.88317       22.45868       -1.94748
C         -8.02924       23.43299       -0.91557
C         -7.71714       23.28647        0.47474
N         -7.47441       23.23482        1.60477
C         -8.55060       24.65749       -1.41610
S         -8.70344       24.55492       -3.15302
C         -8.77416       25.93202       -0.75697
C         -9.73192       26.84511       -1.03552
C         -9.82713       28.26893       -0.58871
C         -9.55889       28.78191        0.64867
C         -9.89269       30.12651        1.01766
N        -10.18682       31.20949        1.30899
C         -9.01739       27.98015        1.68036
N         -8.57553       27.30562        2.51528
C        -10.56841       29.00400       -1.65045
C        -11.23500       28.05670       -2.43199
C        -10.86136       26.69304       -2.02397
O        -11.43207       25.68555       -2.38199
C        -12.10501       28.39481       -3.45305
C        -12.30544       29.75566       -3.73259
C        -11.59570       30.73123       -2.99822
C        -10.70662       30.35096       -1.96739
C        -11.78206       32.18565       -3.18587
O        -10.86166       32.98135       -3.23862
O        -13.10513       32.45199       -3.12695
C        -13.46468       33.80292       -3.41730
C        -13.31034       30.11999       -4.76335
O        -13.25856       31.07723       -5.51000
O        -14.34691       29.26101       -4.60117
C        -15.61988       29.75739       -5.00526
H          4.20047       -0.67580       -0.91911
H         -0.80165       -0.40461       -0.61889
H         -0.71444       -1.75223        1.44862
H          0.56115       -3.08532        3.07415
H          2.98245       -3.49000        2.73855
H          4.17095       -2.44241        0.85504
H          2.66272        4.09574       -2.09212
H         -3.81640       11.49119        0.75262
H         -6.88473       15.25061        1.59999
H         -4.99938       13.73650        5.96294
H         -3.48023       13.14351        5.28462
H         -4.93072       12.12299        5.22665
H         -3.82662       12.49981       -5.02841
H         -2.72211       15.94593       -8.54065
H         -3.06222       17.32935       -7.49399
H         -4.40200       16.42101       -8.20585
H         -5.25549       17.10480       -3.68595
H         -8.00844       26.18318       -0.02613
H        -12.62859       27.61519       -4.00151
H        -10.17310       31.13296       -1.42994
H        -14.49578       33.79168       -3.78111
H        -12.83384       34.23982       -4.19847
H        -13.42079       34.40218       -2.50403
H        -16.37336       29.11547       -4.53880
H        -15.73928       29.71465       -6.09023
H        -15.76507       30.77405       -4.62806
