94

C         -6.96019        2.37483       -3.30853
C         -5.61748        2.47020       -3.14106
C         -4.87509        3.60760       -3.57839
N         -4.27990        4.52776       -3.93409
C         -4.84094        1.38504       -2.62260
N         -4.20833        0.47799       -2.26292
C         -7.82770        3.28764       -4.09020
C         -8.92200        2.53868       -4.56055
C         -9.93987        3.08197       -5.31672
C         -9.89241        4.45491       -5.58481
C         -8.81275        5.24318       -5.08689
C         -7.77664        4.64661       -4.34446
C         -8.81724        6.62502       -5.31876
C         -9.85491        7.22482       -6.03462
C        -10.89799        6.44980       -6.53381
C        -10.91871        5.07350       -6.30966
C         -8.89749        1.17674       -3.99222
O         -9.67580        0.27426       -4.21651
C         -7.79512        1.20962       -2.99042
C         -7.96099        0.47954       -1.87719
C         -7.32300        0.82527       -0.65835
S         -6.91567       -0.44797        0.47690
C         -6.26927        0.71582        1.46328
C         -6.43538        1.98616        0.95984
N         -7.00751        2.06296       -0.27340
C         -5.82512        3.04350        1.85189
C         -5.22607        2.12545        2.90158
C         -5.52182        0.79905        2.65169
S         -4.84407       -0.28036        3.70587
C         -4.05934        1.02491        4.55622
C         -4.38727        2.26774        4.02156
C         -3.19610        0.68396        5.62494
C         -2.99612        1.50817        6.66492
C         -2.14921        1.12683        7.74048
C         -1.38608        1.88743        8.58399
C         -1.11416        3.29011        8.77049
O         -1.62773        4.21909        8.17124
N         -0.15529        3.32950        9.76782
C          0.40245        4.56395       10.25910
C          0.22046        2.07988       10.23230
O          1.05478        1.81824       11.08484
C         -0.58055        1.14359        9.47541
C         -0.72634       -0.21624        9.34962
S         -1.98688       -0.52759        8.22526
C         -0.04238       -1.30084       10.00059
C          0.26127       -2.56984        9.57067
C          0.05131       -3.41097        8.41072
O         -0.57656       -3.14932        7.39863
N          0.71541       -4.59292        8.69788
C          0.75668       -5.69723        7.77229
C          1.33833       -4.59560        9.93053
O          1.97099       -5.48731       10.46804
C          1.05747       -3.29507       10.48603
C          1.40231       -2.60911       11.62137
S          0.48282       -1.14241       11.63658
C          2.20766       -2.99986       12.72706
C          2.95846       -2.18006       13.48010
C          3.34251       -2.68830       14.83884
O          3.41837       -3.83681       15.21844
C          3.50853       -1.48330       15.67160
C          3.37171       -0.32056       14.88603
C          3.35142        0.91583       15.51562
C          3.53030        0.95802       16.90188
C          3.71109       -0.21048       17.65204
C          3.68905       -1.45869       17.04470
F          3.88932       -0.13118       18.97723
F          3.52491        2.14820       17.51735
C          3.27962       -0.74197       13.46097
C          3.70181       -0.00868       12.40060
C          3.93475       -0.59953       11.12376
N          4.16402       -1.08228       10.08996
C          4.07893        1.37077       12.51322
N          4.39810        2.48333       12.61379
H        -10.77377        2.46296       -5.63976
H         -6.97924        5.26580       -3.94663
H         -8.01326        7.25283       -4.93717
H         -9.84698        8.29934       -6.19939
H        -11.70506        6.92097       -7.09020
H        -11.74986        4.49092       -6.70205
H         -8.71879       -0.29809       -1.84214
H         -6.58611        3.69488        2.28998
H         -5.05361        3.61871        1.33520
H         -3.98874        3.20435        4.39154
H         -2.70962       -0.28805        5.56677
H         -3.46390        2.48843        6.70717
H          0.62061        5.22623        9.41667
H          1.31183        4.38131       10.83745
H         -0.34315        5.04798       10.89676
H          1.24488       -5.36253        6.85185
H         -0.26618       -5.99831        7.52574
H          1.30338       -6.54511        8.19189
H          2.12338       -4.04928       13.01644
H          3.19434        1.85124       14.99019
H          3.79268       -2.36835       17.62536
