123

C          3.02645        2.40261       -2.80629
C          2.59586        1.92792       -4.00200
C          3.49870        1.40669       -4.96685
N          4.24588        0.99009       -5.74528
C          1.21963        1.98185       -4.37894
N          0.08986        2.01906       -4.65872
C          4.41894        2.52499       -2.28170
C          4.39976        3.48347       -1.25208
C          5.44164        3.70567       -0.37253
C          6.59410        2.94130       -0.53715
C          6.70033        2.03907       -1.63782
C          5.59629        1.82740       -2.50277
C          7.90927        1.34827       -1.81237
C          8.95819        1.49196       -0.89845
C          8.81136        2.31176        0.21683
C          7.63743        3.04003        0.39267
C          3.06137        4.06116       -1.12642
O          2.77569        5.13955       -0.65656
C          2.18525        3.05376       -1.79657
C          1.05212        2.59386       -1.24469
C          0.55034        3.13220       -0.04329
S         -0.61816        4.37560       -0.01791
C         -0.66988        4.43210        1.71032
C          0.24908        3.55084        2.17140
C          0.92061        2.78074        1.22792
S          2.09156        1.57071        1.86393
C          1.72667        2.24391        3.45731
C          2.51121        1.86391        4.62501
O          2.38572        2.37219        5.73313
O          3.48896        0.97051        4.29827
C          4.65021        0.99915        5.13504
C          4.45796        0.25950        6.44364
C          0.70185        3.20722        3.46983
C         -1.54363        5.28709        2.41531
C         -2.77925        5.51509        1.95472
C         -3.70993        6.30305        2.64839
S         -4.83860        7.26914        1.79015
C         -5.60549        7.81679        3.22722
C         -4.95285        7.27031        4.27951
C         -3.91531        6.38920        3.99900
S         -3.14120        5.58791        5.42016
C         -4.25089        6.52898        6.39809
C         -4.20144        6.33811        7.83658
O         -3.44819        5.58377        8.44460
O         -5.14703        7.12420        8.42590
C         -5.24825        6.99264        9.84711
C         -4.18107        7.82931       10.52569
C         -5.10681        7.37710        5.68217
C         -6.71429        8.67389        3.11754
C         -7.70129        8.64470        4.02268
C         -8.80298        9.51761        3.93299
S         -9.06621       10.62357        2.65722
C        -10.50939       11.26499        3.34038
C        -10.75530       10.55494        4.46821
C         -9.81511        9.59939        4.84630
S        -10.11698        8.71438        6.38173
C        -11.60831        9.64080        6.45913
C        -12.49381        9.34912        7.56736
O        -12.20013        8.74164        8.58936
O        -13.73630        9.83559        7.28363
C        -14.75328        9.54738        8.24897
C        -14.55060       10.36729        9.50915
C        -11.80129       10.56883        5.42044
C        -11.22916       12.29085        2.68389
C        -10.59472       13.20688        1.93729
C        -11.25610       14.21169        1.15404
C        -12.10843       13.99492        0.14277
C        -12.67048       14.98423       -0.79426
C        -13.00078       16.26715       -0.50102
C        -13.59936       17.13842       -1.44978
N        -14.07923       17.85507       -2.22819
C        -12.82342       16.82658        0.79879
N        -12.66542       17.27630        1.85973
C        -12.95208       14.24328       -2.06177
C        -12.82980       12.87338       -1.80401
C        -12.42725       12.63460       -0.41537
O        -12.38675       11.54585        0.11393
C        -13.00077       11.88526       -2.76324
C        -13.31102       12.28637       -4.06306
C        -13.44436       13.67292       -4.36228
C        -13.24996       14.64389       -3.35199
C        -13.76532       14.05145       -5.67132
C        -13.94793       13.09225       -6.67087
C        -13.80184       11.73928       -6.37630
C        -13.48320       11.33727       -5.07994
H          5.32225        4.40813        0.44745
H          5.67254        1.07462       -3.28220
H          8.04861        0.68583       -2.66415
H          9.88956        0.95214       -1.05153
H          9.61332        2.39249        0.94650
H          7.53927        3.67575        1.27095
H          0.53276        1.72680       -1.63783
H          4.95723        2.03829        5.30290
H          5.45445        0.52171        4.56478
H          3.59986        0.63610        7.00632
H          5.35042        0.36417        7.06780
H          4.27839       -0.80380        6.26078
H          0.36892        3.68009        4.38975
H         -1.19428        5.69096        3.35995
H         -3.10580        5.10919        1.00009
H         -5.18933        5.93852       10.14222
H         -6.24190        7.35141       10.13427
H         -3.17817        7.53839       10.19755
H         -4.23863        7.72121       11.61139
H         -4.30215        8.88575       10.26480
H         -5.82646        8.01824        6.17727
H         -6.74046        9.33108        2.25275
H         -7.67997        7.93960        4.84801
H        -14.79241        8.47096        8.45292
H        -15.70747        9.82329        7.78738
H        -13.62202       10.09800       10.02098
H        -15.37648       10.21440       10.20706
H        -14.47365       11.43046        9.26144
H        -12.67211       11.21187        5.36452
H        -12.31225       12.28066        2.76075
H         -9.50730       13.24858        1.88787
H        -10.89301       15.20901        1.38834
H        -12.87452       10.83928       -2.49805
H        -13.32232       15.69222       -3.62535
H        -13.88181       15.10264       -5.92982
H        -14.20378       13.40363       -7.67940
H        -13.93777       10.99509       -7.15670
H        -13.37021       10.27487       -4.87188
