93

C         -0.45438        3.85702        3.72697
C         -1.76131        4.05937        3.45051
C         -2.55511        4.95780        4.21822
N         -3.17515        5.71179        4.83582
C         -2.41951        3.36416        2.38660
N         -2.95664        2.78925        1.53359
C          0.31842        4.33615        4.88638
C          1.25946        3.34378        5.20485
C          2.15426        3.47671        6.25195
C          2.21853        4.72002        6.90221
C          1.38446        5.79427        6.46824
C          0.39541        5.57785        5.49065
C          1.60105        7.07789        6.99048
C          2.57965        7.29906        7.96046
C          3.33060        6.23374        8.44845
C          3.15278        4.95241        7.92277
C          1.31771        2.34725        4.09782
O          2.01138        1.35633        4.03538
C          0.44163        2.94795        3.02564
C          0.85760        2.96196        1.74383
C          0.48569        3.95812        0.75535
C          0.50069        3.89187       -0.63330
C          0.19650        5.16097       -1.27131
S          0.37611        5.45270       -3.00860
C          0.04056        3.81427       -3.67326
C          1.08711        2.83542       -3.18076
S          0.84716        2.35755       -1.45611
C         -0.21817        6.14175       -0.37061
S          0.10341        5.56813        1.20731
C         -0.84123        7.47143       -0.56916
C         -0.87636        8.60403        0.24842
C         -1.78605        9.63063       -0.23673
S         -2.28720       11.05756        0.70892
C         -1.03797       11.19885        2.00485
C         -0.84337        9.88735        2.73189
S          0.13383        8.78279        1.70524
C         -2.26446        9.36666       -1.52481
S         -1.79028        7.77800       -1.96880
C         -3.02602       10.21582       -2.47453
C         -3.96608        9.90287       -3.46807
C         -4.45040       11.06959       -4.17751
S         -5.66785       11.11749       -5.46978
C         -6.33378        9.44169       -5.49190
C         -5.23767        8.39722       -5.45438
S         -4.56934        8.25948       -3.78011
C         -3.87162       12.24497       -3.73131
S         -2.69991       11.91787       -2.52972
C         -4.17169       13.61114       -4.03827
C         -3.60816       14.33161       -5.02298
C         -3.71596       15.79347       -5.25758
C         -4.81397       16.57419       -5.10595
C         -4.83550       17.95640       -5.46032
N         -4.84675       19.08170       -5.73775
C         -6.05673       16.05575       -4.64062
N         -7.06861       15.64127       -4.25265
C         -2.42903       16.20732       -5.88675
C         -1.76385       15.05198       -6.31956
C         -2.51974       13.84388       -5.93679
O         -2.29357       12.71644       -6.31995
C         -0.52333       15.07747       -6.93757
C          0.10806       16.31666       -7.11056
C         -0.53607       17.50661       -6.66836
C         -1.80451       17.43843       -6.05289
C          0.11635       18.73798       -6.84245
C          1.38084       18.80271       -7.43102
C          2.01340       17.63710       -7.85210
C          1.38132       16.40256       -7.69433
H          2.85304        2.67735        6.48151
H         -0.22884        6.40160        5.15393
H          1.03103        7.92825        6.62130
H          2.75569        8.30477        8.33456
H          4.07492        6.40466        9.22252
H          3.77238        4.14181        8.30130
H          1.64802        2.26822        1.45464
H          0.10085        3.89518       -4.76290
H         -0.98047        3.50327       -3.42585
H          2.10379        3.22480       -3.30513
H          1.02392        1.91912       -3.77643
H         -1.39263       11.95131        2.71706
H         -0.10089       11.58232        1.58387
H         -1.78848        9.41508        3.02262
H         -0.27442       10.05779        3.65242
H         -6.90159        9.33578       -6.42269
H         -7.04881        9.31738       -4.67086
H         -4.44152        8.59662       -6.18144
H         -5.66409        7.42136       -5.71149
H         -4.86457       14.07533       -3.34261
H         -0.05172       14.14795       -7.24450
H         -2.25205       18.35961       -5.69171
H         -0.35443       19.66508       -6.51911
H          1.87254       19.76409       -7.55806
H          3.00148       17.68762       -8.30330
H          1.89823       15.50418       -8.02590
