114

C         -1.53523       -2.06914       -0.56170
C         -1.97366       -1.73307        0.67194
C         -1.26690       -2.13877        1.84239
N         -0.67046       -2.45486        2.79537
C         -3.19809       -1.04901        0.92114
N         -4.16763       -0.47827        1.21753
C         -0.41369       -3.00147       -0.84691
C         -0.76202       -3.76630       -1.97259
C          0.10462       -4.65521       -2.58222
C          1.43367       -4.66176       -2.14285
C          1.83022       -3.83166       -1.05041
C          0.88127       -3.05267       -0.36042
C          3.19237       -3.73124       -0.73594
C          4.15044       -4.41530       -1.48626
C          3.75745       -5.25672       -2.52311
C          2.40531       -5.39537       -2.83732
C         -1.99793       -3.22038       -2.57829
O         -2.60690       -3.66179       -3.52822
C         -2.21256       -1.91424       -1.84875
C         -2.48483       -0.85202       -2.63074
C         -2.21525        0.57468       -2.38770
C         -1.00352        1.16993       -2.75937
C          0.18668        0.64901       -3.44689
O          0.22332       -0.43563       -3.99749
N          1.14758        1.63914       -3.38930
C          0.61555        2.81550       -2.94311
O          1.07691        3.93719       -2.84945
C         -0.75069        2.52428       -2.55384
C         -1.68766        3.40582       -2.06689
C         -2.91190        2.84083       -1.74841
C         -3.17262        1.46787       -1.87898
C         -4.55370        1.15458       -1.50286
O         -5.04984        0.04777       -1.60158
S         -5.41440        2.57580       -0.94626
C         -4.06312        3.61435       -1.30392
O         -4.06615        4.82988       -1.23540
C          2.44509        1.45253       -3.82187
C          3.43023        2.35217       -3.70356
C          4.73825        2.15153       -4.22837
C          5.81206        3.04302       -4.14635
C          6.94878        2.58389       -4.85481
C          6.68267        1.35767       -5.39323
S          5.17801        0.73713       -5.12525
C          7.81325        0.91042       -6.07338
C          8.80022        1.86875       -6.05246
C          8.32623        3.00483       -5.24143
C          8.90835        4.16665       -4.84640
C          8.08264        4.94480       -3.83493
N          7.39764        5.59034       -2.99582
C         10.18961        4.76554       -5.40328
N         11.25252        5.26236       -5.86526
C          9.95017        1.37135       -6.72205
C          9.80879        0.00899       -7.06180
S          8.20790       -0.56216       -6.68597
C         10.76012       -1.04079       -7.49589
C         10.38983       -2.06196       -8.40215
C          9.23245       -2.25851       -9.31362
O          8.46138       -1.37321       -9.63835
N          9.28652       -3.55973       -9.78166
C         10.44537       -4.16853       -9.38078
O         10.91417       -5.26902       -9.60427
C         11.14656       -3.22134       -8.53553
C         12.34034       -3.43584       -7.88549
C         12.76032       -2.40741       -7.06434
C         12.00410       -1.24197       -6.84811
C         12.66778       -0.40090       -5.82951
O         12.24432        0.64019       -5.36731
S         14.20253       -1.07070       -5.30608
C         13.99625       -2.47940       -6.29678
O         14.77207       -3.41559       -6.35209
C          8.31539       -4.13004      -10.58112
C          8.34081       -5.39393      -11.03232
C          7.33692       -6.00806      -11.86692
C          6.03785       -6.18634      -11.58576
C          5.00484       -6.89590      -12.37346
C          4.95403       -7.02202      -13.72013
C          3.85146       -7.61763      -14.39790
N          2.96234       -8.10534      -14.95391
C          5.96006       -6.50574      -14.58418
N          6.78816       -6.08561      -15.28669
C          3.91885       -7.25439      -11.41364
C          4.14718       -6.57302      -10.21197
C          5.42229       -5.85102      -10.25476
O          5.85729       -5.16861       -9.35092
C          3.29835       -6.63216       -9.11869
C          2.15987       -7.43124       -9.21540
C          1.92267       -8.18260      -10.40138
C          2.81518       -8.09328      -11.49179
C          0.78778       -9.00245      -10.46725
C         -0.10715       -9.07006       -9.39771
C          0.12145       -8.32301       -8.24542
C          1.25043       -7.51174       -8.15132
H         -0.20925       -5.20580       -3.46454
H          1.20001       -2.41298        0.45788
H          3.52962       -3.07237        0.06180
H          5.20716       -4.27812       -1.27015
H          4.50681       -5.78530       -3.10739
H          2.12470       -6.04061       -3.66736
H         -2.79066       -1.04913       -3.66257
H         -1.48179        4.46859       -1.97450
H          2.61309        0.47564       -4.27252
H          3.26408        3.30903       -3.21190
H          5.69855        3.97658       -3.61210
H         10.87755        1.91957       -6.83450
H         12.89609       -4.36277       -8.00327
H          7.47121       -3.47952      -10.80963
H          9.17784       -6.05538      -10.82353
H          7.77867       -6.43061      -12.76682
H          3.53330       -6.07047       -8.21851
H          2.61532       -8.69621      -12.37158
H          0.58182       -9.59283      -11.35823
H         -0.98796       -9.70395       -9.46750
H         -0.58307       -8.36990       -7.41835
H          1.41147       -6.93632       -7.24223
