132

C          1.16617       -0.27420       -2.69493
C         -0.17348       -0.31852       -2.52570
C         -0.81591       -1.44159       -1.92885
N         -1.32538       -2.36990       -1.44915
C         -1.01916        0.70770       -3.04598
N         -1.71842        1.50814       -3.51229
C          2.13157       -1.36978       -2.48561
C          3.13721       -1.23608       -3.45873
C          4.23505       -2.07248       -3.52111
C          4.39987       -3.00346       -2.48656
C          3.43976       -3.08266       -1.43157
C          2.27944       -2.28774       -1.46157
C          3.69802       -3.92015       -0.33768
C          4.86820       -4.67823       -0.28124
C          5.78009       -4.63557       -1.33225
C          5.54483       -3.80910       -2.43168
C          2.98237        0.06237       -4.16364
O          3.64126        0.48749       -5.08666
C          1.93159        0.77674       -3.36127
C          2.18676        2.05201       -3.01168
C          1.72000        2.69786       -1.81398
S          1.51307        1.82466       -0.33059
C          0.96430        3.18596        0.51349
C          1.01723        4.32519       -0.25305
C          1.53339        4.05932       -1.57387
C          1.77577        5.17135       -2.56420
C          1.67052        6.59722       -1.96234
C          0.53855        6.70109       -0.91531
C          0.64789        5.69387        0.23001
C          3.01793        7.20129       -1.49238
C          3.76483        6.56752       -0.56250
C          3.57496        8.43503       -2.01779
C          4.89476        8.81567       -2.17183
C          5.11440       10.13241       -2.73373
C          6.30567       10.82182       -3.09511
C          7.63220       10.12835       -3.08453
C          8.89309       10.62893       -2.77889
C          9.95513        9.70645       -2.98509
C          9.48845        8.44880       -3.27872
S          7.80768        8.48422       -3.59227
C         10.23718        7.16311       -3.37101
Cl        11.59464       10.16455       -2.81191
C          6.24506       12.19536       -3.43390
C          5.03822       12.90350       -3.42276
C          3.83166       12.16941       -3.24448
C          3.88854       10.79707       -2.88708
S          2.58360        9.68681       -2.61100
C          2.51216       12.85592       -3.39609
C          1.31406       12.67033       -2.71697
C          0.25938       13.52056       -3.15799
C          0.68451       14.42447       -4.10168
S          2.25908       14.04002       -4.63669
C         -0.05166       15.59142       -4.67011
Cl        -1.31988       13.42613       -2.50598
C          5.30188       14.32794       -3.55568
C          6.62179       14.66765       -3.75452
S          7.52026       13.24051       -3.96213
C          7.23429       15.98568       -3.82508
S          8.65111       16.23582       -4.78400
C          8.79882       17.85642       -4.30745
C          7.78567       18.24659       -3.46182
C          6.86268       17.16961       -3.18477
C          5.69870       17.37595       -2.24159
C          5.37703       18.86162       -1.90648
C          6.67846       19.66822       -1.70292
C          7.62972       19.62693       -2.90129
C          4.37350       19.53757       -2.85614
C          4.23718       19.20427       -4.15356
C          3.42252       20.49323       -2.27128
C          3.22336       21.77118       -2.64679
C          2.32670       22.80754       -2.07306
C          1.04774       22.64484       -1.65889
C          0.21541       23.72997       -1.22854
N         -0.44688       24.60886       -0.87364
C          0.40300       21.36992       -1.73238
N         -0.12061       20.33758       -1.81532
C          2.99526       24.12108       -2.31669
C          4.01116       23.90977       -3.25699
C          4.13110       22.49001       -3.60112
O          4.84373       22.06061       -4.48199
C          4.83283       24.90786       -3.74866
C          4.64689       26.20110       -3.26957
C          3.63049       26.46424       -2.30757
C          2.81547       25.40916       -1.82642
C          3.46501       27.78498       -1.86046
C          4.28366       28.81274       -2.33982
C          5.28609       28.53829       -3.26485
C          5.46742       27.23808       -3.72863
H          4.98948       -1.92773       -4.28882
H          1.56728       -2.33273       -0.64170
H          3.00492       -3.96624        0.50036
H          5.07032       -5.29845        0.58858
H          6.68777       -5.23226       -1.28784
H          6.28232       -3.77760       -3.23116
H          2.92332        2.60628       -3.59415
H          0.65523        3.09852        1.54649
H          1.01758        5.07330       -3.35260
H          2.75243        5.04176       -3.04707
H          1.34446        7.21459       -2.80973
H         -0.41510        6.52572       -1.43248
H          0.48017        7.71549       -0.50259
H         -0.31294        5.64710        0.75774
H          1.38793        6.03144        0.96476
H          3.46761        5.62469       -0.11863
H          4.70401        6.96078       -0.18431
H          5.69821        8.15019       -1.88749
H          9.07770       11.64347       -2.45330
H         11.31765        7.31621       -3.28524
H         10.04610        6.65533       -4.32048
H          9.93967        6.49792       -2.55196
H          1.17463       11.95033       -1.92238
H         -1.02584       15.28514       -5.06321
H          0.49970       16.08347       -5.47761
H         -0.22112       16.33834       -3.88505
H          4.52735       15.07445       -3.48644
H          9.62091       18.45379       -4.67862
H          5.94374       16.85257       -1.30779
H          4.79258       16.91164       -2.63481
H          4.87765       18.82300       -0.92661
H          7.20425       19.24897       -0.83292
H          6.45815       20.71233       -1.45156
H          8.61140       20.00428       -2.58520
H          7.27111       20.29398       -3.69309
H          4.88845       18.49432       -4.64707
H          3.48596       19.66828       -4.78761
H          2.85687       20.07614       -1.43989
H          5.60142       24.66488       -4.47694
H          2.07032       25.63495       -1.06943
H          2.68936       28.03207       -1.13781
H          4.13747       29.83181       -1.99023
H          5.92837       29.33557       -3.63087
H          6.25584       27.04008       -4.45227
