114

C         -6.45951        9.10587       17.33735
C         -6.17474       10.44022       17.01231
C         -5.87683       10.86692       15.69282
C         -5.83919       10.00181       14.56790
C         -6.13098        8.64828       14.87825
C         -6.43482        8.21913       16.24540
N         -6.66623        6.90207       16.23682
O         -6.52834        6.50316       14.91889
N         -6.20859        7.56319       14.09144
C         -5.54634       10.43592       13.19951
C         -4.99202        9.74911       12.13988
C         -4.92446       10.49384       10.89662
C         -4.48521       10.12287        9.60084
C         -4.04610        8.72086        9.37160
C         -4.64402        7.53528        9.77544
C         -3.95417        6.37068        9.32657
C         -2.87671        6.67922        8.52576
S         -2.56363        8.36176        8.56188
C         -2.00485        5.76567        7.73356
Cl        -4.48774        4.79222        9.71397
C         -4.51558       11.05714        8.53882
C         -4.93246       12.38110        8.73654
C         -5.38028       12.74608       10.03215
C         -5.38344       11.80342       11.08588
S         -5.89086       12.03298       12.72170
C         -5.88973       14.11848       10.27861
C         -7.05563       14.52255       10.91465
C         -7.22650       15.93487       10.94314
C         -6.22850       16.59111       10.26160
S         -4.97694       15.51097        9.82670
C         -6.13796       18.03893        9.90439
Cl        -8.57622       16.66894       11.69725
C         -4.80962       13.14333        7.50677
C         -4.25289       12.45190        6.45574
S         -4.13579       10.80670        6.87101
C         -3.85191       12.97390        5.16185
C         -4.01928       14.27431        4.66211
C         -3.50547       14.39023        3.35048
C         -2.96373       13.19313        2.92014
S         -3.03129       11.95517        4.00925
C         -2.52603       13.30557        1.58663
C         -2.77228       14.58668        1.17113
C         -3.48409       15.35724        2.24401
C         -4.50226       16.23457        1.98474
C         -4.89701       16.10626        0.52251
N         -5.22449       15.99982       -0.69053
C         -4.58431       17.58453        2.67846
N         -4.65239       18.70444        3.25397
C         -2.31867       14.78621       -0.16377
C         -1.91271       13.58609       -0.75727
S         -1.91756       12.29449        0.41230
C         -1.54562       13.35740       -2.15322
C         -1.75166       12.23721       -2.91789
C         -1.35557       12.35316       -4.31712
C         -1.50914       11.49045       -5.44234
C         -2.30075       10.23657       -5.31593
C         -2.05004        8.97052       -5.83013
C         -3.00740        7.99557       -5.44261
C         -3.93418        8.50615       -4.56510
S         -3.81796       10.21164       -4.48668
C         -4.96218        7.78104       -3.76590
Cl        -2.91487        6.36990       -5.96670
C         -0.86784       11.78295       -6.66929
C         -0.01690       12.88950       -6.79524
C          0.03383       13.81473       -5.71739
C         -0.64852       13.55587       -4.50482
S         -0.80740       14.56410       -3.09707
C          0.86751       15.03885       -5.84879
C          1.72063       15.63424       -4.93069
C          2.42159       16.75824       -5.45473
C          2.14834       16.96301       -6.78650
S          0.83171       15.99580       -7.28842
C          2.82332       17.87751       -7.73945
Cl         3.52891       17.65886       -4.51202
C          0.70508       12.81886       -8.05022
C          0.27821       11.84048       -8.91976
S         -0.97993       10.95695       -8.19654
C          0.74311       11.52439      -10.27873
C         -0.07880       10.99923      -11.31128
C          0.38401       10.71110      -12.62462
C          1.71058       10.92038      -13.03203
C          2.55291       11.44024      -12.03303
C          2.08730       11.73867      -10.67688
N          3.14151       12.20952       -9.98895
O          4.21045       12.21283      -10.86710
N          3.85397       11.74412      -12.11590
H         -6.68502        8.78205       18.34461
H         -6.18103       11.18682       17.80961
H         -5.66191       11.92943       15.55872
H         -4.65279        8.72436       12.23909
H         -5.55346        7.49484       10.36321
H         -1.21260        5.34407        8.35931
H         -1.54077        6.27933        6.88414
H         -2.59058        4.93589        7.31972
H         -7.77206       13.83060       11.34316
H         -6.75423       18.23601        9.02027
H         -5.11180       18.34628        9.67228
H         -6.49937       18.67159       10.71664
H         -5.06242       14.19055        7.42031
H         -4.50744       15.06900        5.21481
H         -2.38022       15.71692       -0.71664
H         -2.22368       11.34793       -2.51031
H         -1.19102        8.73406       -6.44694
H         -5.84131        7.55103       -4.37334
H         -5.28063        8.35966       -2.89191
H         -4.54872        6.83941       -3.38616
H          1.87126       15.26489       -3.92540
H          2.72044       18.92802       -7.42115
H          2.43005       17.79992       -8.76015
H          3.89353       17.64829       -7.78865
H          1.50495       13.49964       -8.31665
H         -1.13383       10.81178      -11.10903
H         -0.32621       10.31230      -13.34850
H          2.06135       10.70248      -14.03288
