95

C         -3.64310        0.69666        5.24041
C         -2.68731        0.45210        4.23751
O         -1.86475       -0.60469        4.55393
C         -1.59458       -1.58767        3.56900
C         -2.46501        1.36196        3.16128
O         -1.64057        0.98455        2.12140
C         -2.45490        0.51162        1.03029
C         -3.02729        2.67082        3.12180
C         -4.08593        2.90099        4.05617
C         -4.39223        1.88667        5.12776
N         -5.38838        2.25545        5.94754
S         -5.91860        3.73143        5.41286
N         -4.90916        3.96492        4.12351
C         -2.50018        3.77824        2.29808
C         -1.96774        3.79746        1.00484
C         -1.58129        5.09221        0.61172
C         -1.72152        5.98357        1.64413
S         -2.31229        5.35150        3.05032
C         -1.29478        7.24764        1.21225
C         -0.88875        7.16181       -0.09860
C         -1.04952        5.78229       -0.56120
C         -0.80314        5.27051       -1.78275
C         -0.30099        6.07548       -2.84105
N          0.11208        6.72883       -3.70478
C         -1.04862        3.90120       -2.08407
N         -1.25434        2.78180       -2.31624
C         -0.47306        8.41788       -0.58338
C         -0.62083        9.40873        0.39450
S         -1.19582        8.75020        1.89434
C         -0.38787       10.82747        0.27072
C         -0.28087       11.77711        1.28907
C         -0.06319       13.07073        0.75921
C         -0.08738       13.03370       -0.60058
S         -0.26206       11.55979       -1.30078
C          0.14675       14.35222       -1.08613
C          0.40298       15.19230       -0.03881
C          0.15747       14.44666        1.21138
C          0.00413       14.91707        2.47495
C          0.07368       16.30499        2.74140
N          0.10457       17.44834        2.95060
C         -0.33501       14.05192        3.57682
N         -0.60200       13.35667        4.46679
C          0.88997       16.44334       -0.53737
C          0.83725       16.51999       -1.95546
S          0.08749       15.05119       -2.56591
C          1.19364       17.57738       -2.96250
C          1.13139       18.97332       -2.79414
O          1.21795       19.49281       -1.50328
C         -0.00618       19.60861       -0.78791
C          1.28734       19.96965       -3.87726
O          0.56601       21.08590       -3.48610
C          0.72450       22.29272       -4.16971
C          1.82463       19.71789       -5.18941
C          1.94707       18.28836       -5.37248
C          1.58615       17.23805       -4.29907
N          1.71754       15.98862       -4.78616
S          2.11546       16.07567       -6.37099
N          2.38808       17.68989       -6.49909
C          2.26426       20.60477       -6.35986
C          3.25296       21.66314       -6.39714
O          3.57236       22.31644       -5.20864
C          3.22235       23.72166       -5.30987
C          3.93675       22.16654       -7.58624
O          4.93245       23.09379       -7.35683
C          5.99551       23.23870       -8.28919
C          3.58357       21.79189       -8.87732
C          2.50278       20.89190       -8.94852
C          1.82357       20.30755       -7.70415
N          0.78106       19.52605       -8.05083
S          0.74367       19.43112       -9.70292
N          1.97641       20.45802      -10.10424
H         -3.79595        0.01410        6.06786
H         -0.82213       -2.24678        3.97963
H         -1.18561       -1.19077        2.64244
H         -2.48553       -2.19257        3.37855
H         -3.15998        1.27241        0.67639
H         -3.02233       -0.38115        1.31043
H         -1.78759        0.25875        0.20138
H         -1.87710        2.92625        0.37866
H         -0.11290        8.62281       -1.58453
H         -0.34919       11.52238        2.34151
H          1.27540       17.24413        0.08036
H          0.24889       19.97976        0.21274
H         -0.50515       18.64774       -0.65569
H         -0.68804       20.32327       -1.25135
H          0.54759       22.20978       -5.24348
H          1.70323       22.65291       -3.89667
H          0.01480       23.02388       -3.77602
H          3.99459       24.33403       -5.77862
H          3.10536       24.11801       -4.29747
H          2.27083       23.86108       -5.84370
H          5.74985       23.99492       -9.04182
H          6.27993       22.29256       -8.75664
H          6.86318       23.60446       -7.72779
H          4.03836       22.19530       -9.77296
