82

C          2.80003        3.05746        0.53271
C          2.22290        4.03559        1.28735
S          3.39736        4.76937        2.32329
C          4.66492        3.75443        1.75326
C          6.03304        3.81399        2.33760
C          4.18665        2.91274        0.78547
C          4.79123        1.86190        0.01097
O          5.97423        1.62183       -0.12469
C          3.57249        1.17807       -0.60550
C          2.38017        2.08284       -0.44868
C          1.21533        2.06409       -1.13324
C          0.18923        3.02406       -0.90293
N         -0.64787        3.80507       -0.71324
C          0.95241        1.11696       -2.16253
N          0.75022        0.33936       -2.99532
C          3.59549       -0.11417       -0.97221
C          4.76002       -0.92299       -0.84894
C          5.74211       -1.18357       -1.77643
C          6.77338       -2.03827       -1.27432
S          8.08420       -2.48501       -2.37347
C          9.30635       -1.22344       -1.94382
C          6.56979       -2.43298        0.04563
S          5.07003       -1.76108        0.60758
C          7.35154       -3.27007        0.95956
C          7.02277       -3.63432        2.27700
C          8.00531       -4.46029        2.87568
C          9.05604       -4.64960        2.01730
S          8.89339       -3.94901        0.53039
C         10.04917       -5.39593        2.67172
C          9.63288       -5.69839        3.94871
C          8.28548       -5.16110        4.14395
C          7.46015       -5.28553        5.20608
C          6.12135       -4.57273        5.10649
N          5.01069       -3.98141        5.02387
C          7.79227       -5.99028        6.38734
N          8.07977       -6.56535        7.35299
C         10.64691       -6.37185        4.66847
C         11.79653       -6.52503        3.88576
S         11.56832       -5.90864        2.27425
C         13.08468       -7.06466        4.25063
C         14.30307       -6.67822        3.73154
C         15.40636       -7.35291        4.32011
S         17.06495       -6.88235        3.91541
C         16.97522       -6.65154        2.11972
C         15.01408       -8.28402        5.27706
S         13.28641       -8.27053        5.43722
C         15.73702       -9.11742        6.18833
C         16.84586       -9.81849        5.90406
C         17.75143      -10.12392        7.08674
O         17.45369      -10.29490        8.25266
C         19.05969      -10.04014        6.47614
C         20.34472      -10.03872        6.95154
S         21.45038       -9.75269        5.65583
C         20.19497       -9.68745        4.47098
C         18.98536       -9.90257        5.06499
C         17.61413      -10.00709        4.65233
C         17.13986      -10.39975        3.45075
C         17.98994      -10.52276        2.31662
N         18.68156      -10.58308        1.38701
C         15.78183      -10.79182        3.27483
N         14.69087      -11.15882        3.13494
C         20.84583      -10.23370        8.33897
H          1.19680        4.37862        1.33738
H          6.17112        4.68356        2.98697
H          6.78778        3.86036        1.54616
H          6.22027        2.91339        2.93327
H          2.70114       -0.64333       -1.28678
H          5.73039       -0.76538       -2.77646
H         10.26878       -1.49984       -2.38360
H          9.43536       -1.13944       -0.86149
H          9.00516       -0.25264       -2.34506
H          6.11212       -3.29627        2.75318
H         10.59230       -6.68494        5.70462
H         14.39627       -5.89356        2.99045
H         17.98892       -6.59706        1.71293
H         16.46157       -5.71772        1.87618
H         16.45795       -7.48735        1.63943
H         15.40753       -9.07086        7.22834
H         20.44437       -9.49320        3.43627
H         20.07121      -10.00406        9.07690
H         21.70645       -9.59158        8.55151
H         21.14914      -11.27654        8.47981
