109

C          3.17651       -0.48919        2.38355
C          1.85080       -0.92097        2.90515
C          1.26685       -2.15237        2.62550
C         -0.00089       -2.47909        3.13109
C         -0.69865       -1.57842        3.96349
C         -0.07549       -0.36719        4.30184
C          1.17681       -0.04502        3.78030
C         -2.06270       -1.87417        4.49587
O         -2.55848       -1.13548        5.33345
O         -2.80272       -2.91196        4.04536
C          3.97124       -0.86479        1.31534
C          5.21326        0.00338        1.36799
C          6.35015       -0.33446        2.13192
C          7.33689        0.60880        2.43295
C          7.20560        1.94689        2.03129
C          6.06807        2.30482        1.28657
C          5.09134        1.35155        0.96824
C          8.23233        2.94859        2.46296
O          9.22442        2.56978        3.06711
O          8.08755        4.27807        2.25673
C          3.52586       -1.84424        0.17089
C          2.20772       -1.52834       -0.48299
C          1.09153       -2.40319       -0.52140
C         -0.07961       -2.02545       -1.18829
C         -0.14205       -0.81199       -1.87351
C          0.96554        0.03240       -1.89337
C          2.12470       -0.31523       -1.19782
F          3.19667        0.50767       -1.28429
F          0.92524        1.18669       -2.60499
F         -1.26932       -0.46615       -2.54324
F         -1.15517       -2.85140       -1.18474
F          1.11019       -3.61910        0.07423
C          4.26776       -2.86830       -0.42041
C          5.64665       -3.29158        0.00644
C          6.02320       -3.37711        1.35654
C          7.33046       -3.74375        1.71118
C          8.26844       -4.06269        0.72663
C          7.89672       -4.03934       -0.61219
C          6.60675       -3.65730       -0.97888
F          6.31467       -3.62269       -2.30263
F          8.80453       -4.36687       -1.57218
F          9.53193       -4.41277        1.07498
F          7.68971       -3.79126        3.01754
F          5.12019       -3.13945        2.34082
C          3.68752       -3.78082       -1.50068
C          3.55725       -3.47825       -2.87212
C          3.08432       -4.45980       -3.79463
C          2.69750       -5.78201       -3.39585
C          2.85342       -6.03211       -1.99988
C          3.32437       -5.07229       -1.10994
N          3.41538       -5.48333        0.16809
Se         2.89141       -7.17462        0.36913
N          2.63200       -7.20791       -1.40240
C          2.20485       -6.81655       -4.47049
C          2.72072       -6.57026       -5.86571
C          1.84535       -6.55663       -6.98007
C          2.34609       -6.40034       -8.27655
C          3.71655       -6.24726       -8.48594
C          4.59277       -6.23633       -7.39985
C          4.10484       -6.38870       -6.09541
F          4.99005       -6.41695       -5.06620
F          5.92448       -6.09837       -7.61347
F          4.19732       -6.11222       -9.74733
F          1.49829       -6.40916       -9.33546
F          0.50505       -6.69410       -6.81596
C          1.31017       -7.89949       -4.24881
C          0.57909       -7.95615       -2.97141
C         -0.30514       -6.90679       -2.64782
C         -1.02969       -6.94395       -1.45515
C         -0.85161       -8.00214       -0.56371
C          0.02774       -9.04520       -0.87227
C          0.73206       -9.03932       -2.08274
F          1.59401      -10.04412       -2.36771
F          0.20835      -10.05676        0.00467
F         -1.54643       -8.02616        0.60033
F         -1.90999       -5.95335       -1.17273
F         -0.50210       -5.87733       -3.51349
C          0.90564       -8.99243       -5.29660
C         -0.41545       -9.59471       -5.33675
O         -0.75223      -10.43620       -6.30544
C          0.04218      -10.80715       -7.28519
C         -0.45552      -11.65666       -8.28289
C          0.36466      -12.05300       -9.33876
C          1.68893      -11.61354       -9.39081
C          2.19458      -10.77397       -8.38688
C          1.36463      -10.35209       -7.32247
C          1.80297       -9.47145       -6.30769
O          2.97439       -9.13316       -6.30931
C         -1.54197       -9.34268       -4.37804
H          3.57082        0.29787        3.03282
H          1.80959       -2.86431        2.04023
H         -0.41410       -3.44251        2.87452
H         -0.56381        0.34606        4.95614
H          1.61304        0.90884        4.05431
H         -2.53676       -3.47902        3.31160
H          6.47711       -1.29125        2.58490
H          8.17682        0.29889        3.04363
H          5.89215        3.32504        0.98098
H          4.19567        1.69757        0.47576
H          7.31133        4.68557        1.85521
H          3.85532       -2.50385       -3.23975
H          3.02751       -4.17017       -4.83579
H         -1.48290      -12.00085       -8.24603
H         -0.02764      -12.69869      -10.11609
H          2.32060      -11.92063      -10.21471
H          3.22152      -10.44108       -8.46046
H         -1.30069       -9.72241       -3.37106
H         -2.43955       -9.92274       -4.68611
H         -1.82306       -8.27444       -4.36966
