99

C         -6.17751       -0.41568       -1.01710
O         -6.51173       -1.49957       -1.44941
C         -6.85749        0.85534       -1.29756
C         -6.18779        1.92483       -0.68173
C         -6.72127        3.20036       -0.83748
C         -7.89354        3.37673       -1.59070
C         -8.53611        2.28307       -2.18272
C         -8.02059        1.00008       -2.04383
Br       -10.12531        2.55933       -3.16723
C         -4.99316        1.39092        0.04818
C         -4.04041        2.13408        0.66845
C         -4.07966        3.55706        0.73663
N         -4.10127        4.71832        0.80258
C         -2.89494        1.57275        1.30339
N         -1.96125        1.12393        1.82982
C         -5.03350       -0.08968       -0.09529
C         -4.30053       -1.04750        0.49874
C         -4.44565       -2.49810        0.32264
C         -3.74039       -3.17838       -0.66551
F         -2.92920       -2.50253       -1.49375
C         -3.79841       -4.56946       -0.76102
F         -2.95302       -5.16706       -1.61573
C         -4.61992       -5.33864        0.07656
C         -5.32170       -4.63327        1.07482
C         -5.21786       -3.24668        1.20533
F         -5.83005       -2.64020        2.23545
F         -6.07584       -5.27174        1.98460
C         -4.60301       -6.81939       -0.02048
S         -4.83627       -7.71679        1.41829
C         -4.34694       -7.68552       -1.08317
C         -4.29886       -7.33152       -2.52120
O         -4.84616       -6.34476       -2.99791
C         -3.59317       -8.33400       -3.31973
C         -3.22753       -8.29999       -4.65575
N         -2.56529       -9.47049       -4.94691
C         -2.00911       -9.84290       -6.23916
C         -0.55963       -9.41439       -6.40218
C         -2.54379      -10.27236       -3.83554
C         -3.17654       -9.60049       -2.81019
C         -3.41535      -10.06905       -1.45364
O         -3.09322      -11.18461       -1.06207
C         -4.02416       -9.03119       -0.60046
C         -4.41864       -9.21271        0.71745
C         -4.46531      -10.40235        1.49820
C         -5.38312      -10.60174        2.46127
C         -5.45895      -11.82520        3.18801
C         -6.53536      -12.44240        3.82495
C         -6.02233      -13.24361        4.94484
C         -6.62924      -13.73462        6.13345
C         -5.87053      -14.42811        7.09849
C         -4.52921      -14.71878        6.86972
C         -3.91256      -14.28855        5.70135
C         -4.66164      -13.52225        4.78984
S         -4.04700      -12.79247        3.38716
C         -6.46602      -14.80309        8.34749
N         -6.93224      -15.09132        9.37020
C         -7.94305      -12.13789        3.60019
C         -8.58885      -11.69291        2.49866
C        -10.00452      -11.18427        2.63315
O        -10.79244      -11.41878        3.52527
C        -10.21036      -10.26263        1.49086
C         -9.06200      -10.22810        0.68611
C         -9.00465       -9.32726       -0.36566
C        -10.11633       -8.51189       -0.65667
C        -11.29574       -8.60884        0.12675
C        -11.33117       -9.48796        1.22521
C        -12.53615       -7.82458       -0.21610
C         -9.98651       -7.51591       -1.78240
C         -8.15243      -11.30901        1.14948
C         -7.42573      -12.04918        0.27250
C         -7.29348      -13.44255        0.47087
N         -7.33329      -14.60584        0.54934
C         -6.94052      -11.54689       -0.96849
N         -6.49255      -11.08937       -1.93459
H         -6.28516        4.09056       -0.39907
H         -8.30171        4.38039       -1.70515
H         -8.50515        0.13668       -2.48947
H         -3.51718       -0.82923        1.21386
H         -3.38155       -7.53952       -5.41229
H         -2.63547       -9.39306       -7.01639
H         -2.09118      -10.93249       -6.33433
H         -0.45618       -8.32708       -6.32871
H         -0.17883       -9.72498       -7.38094
H          0.07729       -9.86451       -5.63308
H         -2.09553      -11.25799       -3.85355
H         -3.76705      -11.19283        1.23683
H         -6.10543       -9.83042        2.72580
H         -7.67083      -13.50268        6.34212
H         -3.93864      -15.26095        7.60701
H         -2.85734      -14.48642        5.52368
H         -8.57368      -12.28238        4.48096
H         -8.11437       -9.22482       -0.97734
H        -12.20837       -9.55807        1.86424
H        -12.29218       -6.84241       -0.63109
H        -13.14614       -7.64759        0.67565
H        -13.13707       -8.37724       -0.94632
H         -9.02078       -7.61090       -2.29204
H        -10.03982       -6.49912       -1.38045
H        -10.76883       -7.66096       -2.53317
