87

C         -4.76650       -0.46424       -2.52832
O         -5.44942       -1.46264       -2.62072
C         -4.47265        0.47550       -3.61694
C         -3.76620        1.58873       -3.12780
C         -3.28635        2.51622       -4.04144
C         -3.54764        2.32419       -5.40876
C         -4.27917        1.21323       -5.85633
C         -4.75631        0.26623       -4.95798
Br        -4.57955        0.97770       -7.70731
C         -3.64690        1.45779       -1.64773
C         -3.38328        2.44722       -0.75577
C         -3.09838        3.77819       -1.16124
N         -2.85994        4.86365       -1.50002
C         -3.43652        2.24441        0.65338
N         -3.48027        2.07751        1.80406
C         -4.03669        0.07421       -1.32776
C         -3.63595       -0.69355       -0.30342
C         -3.91051       -2.11614       -0.21614
C         -5.04600       -2.65829        0.40828
C         -5.29177       -4.04895        0.44073
C         -4.42971       -4.99458       -0.15506
C         -3.28020       -4.46760       -0.79179
C         -3.02108       -3.03847       -0.81655
N         -1.87180       -2.82891       -1.47628
O         -1.41871       -4.08017       -1.85141
N         -2.27682       -5.08105       -1.44114
C         -4.68236       -6.41950       -0.10875
N         -4.24505       -7.27668       -1.10151
C         -4.61192       -8.54202       -0.75798
C         -4.53674       -9.88495       -1.18684
C         -5.16123      -10.60080       -0.18019
N         -5.64402       -9.73917        0.77384
C         -5.27716       -8.48312        0.41785
C         -5.34765       -7.15059        0.86059
C         -5.39279      -11.98253       -0.02656
C         -5.49996      -12.54571        1.18970
C         -5.75978      -13.93168        1.39682
S         -5.80137      -14.99919        0.06558
C         -6.01606      -14.61916        2.57900
C         -6.01736      -14.02145        3.93283
O         -5.70528      -12.86540        4.18877
C         -6.44865      -14.96779        4.95493
C         -6.62196      -14.75051        6.30921
N         -7.09783      -15.91193        6.86331
C         -7.50182      -16.08095        8.24915
C         -8.98164      -15.79382        8.43914
C         -7.17736      -16.88576        5.90215
C         -6.79697      -16.32633        4.69963
C         -6.76801      -16.95782        3.38856
O         -7.10693      -18.11952        3.20138
C         -6.33773      -16.02851        2.32963
C         -6.17160      -16.37473        0.99706
C         -6.33002      -17.62880        0.33935
C         -5.62020      -17.96009       -0.75345
C         -5.79524      -19.22263       -1.46190
C         -7.01456      -19.93036       -1.51537
C         -7.17361      -21.14935       -2.20626
C         -6.13373      -21.76132       -2.92383
C         -4.89033      -21.08371       -2.93597
C         -4.70832      -19.77965       -2.19676
N         -3.46483      -19.28044       -2.32908
S         -2.61686      -20.35234       -3.26945
N         -3.78147      -21.49679       -3.56847
H         -2.68742        3.37377       -3.75225
H         -3.15876        3.04474       -6.12633
H         -5.29552       -0.61715       -5.28077
H         -2.97531       -0.33525        0.47953
H         -5.77620       -1.99411        0.86815
H         -6.20225       -4.39534        0.93076
H         -3.71609       -7.04227       -1.93339
H         -4.07329      -10.28061       -2.08005
H         -6.16702       -9.95068        1.61365
H         -5.79980       -6.78305        1.77071
H         -5.45232      -12.55366       -0.94825
H         -5.39205      -11.93040        2.07654
H         -6.47390      -13.85810        6.90591
H         -6.89196      -15.40889        8.86187
H         -7.26722      -17.11084        8.54033
H         -9.22843      -14.77213        8.13097
H         -9.26271      -15.91281        9.48963
H         -9.59563      -16.47713        7.84214
H         -7.52251      -17.88622        6.13559
H         -7.04525      -18.32512        0.76593
H         -4.85808      -17.30062       -1.16659
H         -7.88822      -19.52508       -1.00370
H         -8.15014      -21.63217       -2.17703
H         -6.27198      -22.69898       -3.44662
