89

C          2.26229       -4.75417        1.45816
O          1.86300       -5.85041        1.12967
C          3.49023       -4.47942        2.21594
C          3.73679       -3.09507        2.26604
C          4.78628       -2.63900        3.05165
C          5.56784       -3.57365        3.75052
C          5.30036       -4.94933        3.66336
C          4.25236       -5.42320        2.88459
Br         6.34682       -6.16800        4.65971
C          2.69306       -2.40336        1.45932
C          2.77129       -1.16464        0.91680
C          3.88366       -0.30369        1.12947
N          4.79070        0.39510        1.30718
C          1.77193       -0.65819        0.03040
N          0.96012       -0.25305       -0.68957
C          1.64149       -3.40949        1.20581
C          0.32478       -3.23040        1.02923
C         -0.64400       -4.31678        0.95136
C         -1.02626       -4.93354       -0.24511
C         -1.97395       -5.98899       -0.28742
C         -2.63637       -6.52989        0.85248
C         -2.26581       -5.89426        2.07083
C         -1.27062       -4.81327        2.11552
N         -1.10965       -4.43073        3.39142
O         -1.96336       -5.22273        4.12976
N         -2.70812       -6.05779        3.32783
C         -3.66245       -7.59261        0.77718
S         -4.63121       -7.68008       -0.65146
C         -5.58336       -8.97016       -0.06731
C         -5.27661       -9.24779        1.25431
C         -4.01490       -8.62944        1.64444
C         -3.29671       -9.08635        2.89500
N         -1.91161       -9.39374        2.54638
C         -3.92553      -10.34559        3.52155
C         -5.44218      -10.20899        3.59080
C         -6.04152      -10.17308        2.17373
N         -7.42397       -9.69722        2.27013
C         -6.57717       -9.53617       -0.91592
C         -6.27485      -10.59900       -1.68231
C         -7.22101      -11.23329       -2.59984
C         -8.25548      -10.57225       -3.29873
C         -9.10609      -11.21544       -4.23901
C         -8.97323      -12.57336       -4.59040
C         -7.99274      -13.27741       -3.84427
C         -7.10915      -12.61349       -2.88974
N         -6.25500      -13.53318       -2.41384
O         -6.61500      -14.73228       -2.98746
N         -7.68233      -14.58329       -3.84181
C         -9.81584      -13.22475       -5.59831
C         -9.48353      -14.22832       -6.42810
C        -10.60311      -15.05380       -6.98749
O        -11.73776      -14.70666       -7.23523
C        -10.05273      -16.42037       -7.07466
C         -8.67891      -16.41501       -6.76962
C         -8.25066      -14.99943       -6.63747
C         -7.00474      -14.52396       -6.86838
C         -5.88365      -15.38298       -7.06648
N         -4.97629      -16.08576       -7.20963
C         -6.72634      -13.13195       -6.98838
N         -6.47089      -12.00659       -7.11502
C         -8.01622      -17.62372       -6.61801
C         -8.72676      -18.81140       -6.83707
C        -10.08667      -18.78233       -7.18806
C        -10.77391      -17.57793       -7.30310
Br       -11.00729      -20.40872       -7.46889
H          5.01116       -1.58501        3.17926
H          6.37944       -3.21615        4.38216
H          4.00416       -6.47821        2.82535
H         -0.12965       -2.24384        1.01133
H         -0.57490       -4.60388       -1.18102
H         -2.19330       -6.39690       -1.27491
H         -3.33325       -8.30240        3.65139
H         -1.90200      -10.12308        1.83402
H         -1.44020       -9.78631        3.35845
H         -3.51999      -10.49094        4.53057
H         -3.67534      -11.24628        2.94519
H         -5.69092       -9.29615        4.15088
H         -5.86730      -11.04870        4.15379
H         -6.03542      -11.18462        1.75114
H         -7.41251       -8.72087        2.56686
H         -7.90478      -10.20593        3.00966
H         -7.56320       -9.08914       -0.90266
H         -5.28038      -11.04067       -1.64338
H         -8.40586       -9.50484       -3.13372
H         -9.87984      -10.61110       -4.71614
H        -10.85687      -12.89217       -5.57762
H         -6.97636      -17.69042       -6.31210
H         -8.21003      -19.76301       -6.72316
H        -11.83300      -17.53342       -7.53297
