96

C         -7.35917       -4.94995       10.09810
O         -6.54800       -5.26864        9.25289
C         -7.06817       -4.68839       11.51537
C         -8.18304       -4.11401       12.14704
C         -8.11561       -3.87839       13.51625
C         -6.93879       -4.21318       14.20424
C         -5.84218       -4.77587       13.54027
C         -5.89531       -5.02364       12.17361
Br        -4.29361       -5.24216       14.51791
C         -9.26239       -3.93522       11.13005
C        -10.33035       -3.10720       11.22046
C        -10.60162       -2.32474       12.37795
N        -10.81562       -1.68533       13.31931
C        -11.22408       -2.90359       10.12705
N        -11.94580       -2.74288        9.23395
C         -8.83019       -4.70614        9.93552
C         -9.57448       -5.30433        8.99308
C         -9.06147       -6.21674        7.96951
C         -8.72853       -5.83207        6.65766
C         -8.27653       -6.75564        5.67506
C         -8.10304       -8.13589        5.92317
C         -8.43044       -8.54446        7.24301
C         -8.91018       -7.59640        8.24927
N         -9.15512       -8.27436        9.38132
O         -8.83666       -9.59178        9.11075
N         -8.39104       -9.75969        7.81462
C         -7.64012       -9.08611        4.91264
N         -6.95568      -10.23971        5.25281
C         -6.69895      -10.94692        4.11485
C         -6.11814      -12.15177        3.65705
C         -6.32816      -12.15235        2.28602
N         -6.95500      -10.98048        1.92252
C         -7.18914      -10.25585        3.06097
C         -7.77106       -9.05261        3.52674
C         -6.05489      -13.09444        1.26451
C         -4.98704      -13.90055        1.35899
C         -4.77389      -14.92693        0.40279
S         -5.48727      -16.44607        0.70192
C         -3.96695      -14.97729       -0.71905
C         -3.10283      -13.87517       -1.17309
O         -3.14268      -12.73005       -0.74188
C         -2.15596      -14.31152       -2.18862
C         -1.09264      -13.60687       -2.71468
N         -0.39959      -14.44900       -3.54624
C          0.86112      -14.11752       -4.19328
C          2.05842      -14.47928       -3.33017
C         -1.05926      -15.65021       -3.63996
C         -2.16535      -15.60181       -2.80153
C         -3.15500      -16.64107       -2.52097
O         -3.21200      -17.69757       -3.13818
C         -4.03444      -16.28621       -1.38276
C         -5.02020      -17.10318       -0.82015
C         -5.51308      -18.38469       -1.23104
C         -6.75109      -18.88995       -1.05630
C         -7.94171      -18.28485       -0.47295
C         -9.14474      -18.86507       -0.33900
C        -10.38136      -18.06562       -0.02671
O        -10.46496      -17.00780        0.55868
C        -11.49228      -18.82458       -0.65313
C        -10.98936      -20.00246       -1.24353
C        -11.78712      -20.75750       -2.08501
C        -13.12576      -20.38567       -2.20548
C        -13.64532      -19.28712       -1.50295
C        -12.82494      -18.46904       -0.73139
F        -14.95363      -19.01072       -1.58056
F        -13.92886      -21.11393       -2.99248
C         -9.62681      -20.19369       -0.70233
C         -9.23034      -21.35823       -0.13747
C         -8.27827      -21.36761        0.92571
N         -7.56857      -21.36921        1.84427
C         -9.91570      -22.58471       -0.37675
N        -10.50057      -23.56299       -0.59426
H         -8.94331       -3.47257       14.08821
H         -6.88695       -4.02563       15.28158
H         -5.07070       -5.48836       11.63982
H        -10.65545       -5.23228        8.98230
H         -8.81329       -4.78316        6.37408
H         -8.03845       -6.36552        4.68485
H         -6.70920      -10.55606        6.18325
H         -5.65290      -12.93032        4.24537
H         -7.21769      -10.67509        0.99471
H         -8.25264       -8.28579        2.93606
H         -6.74432      -13.17703        0.42668
H         -4.28590      -13.82330        2.18439
H         -0.75173      -12.59610       -2.52250
H          0.85333      -13.04256       -4.40158
H          0.89668      -14.64637       -5.15228
H          2.02235      -13.96303       -2.36477
H          2.99001      -14.19739       -3.83062
H          2.09090      -15.55597       -3.13006
H         -0.67591      -16.45592       -4.25611
H         -4.80831      -19.01252       -1.77716
H         -6.89527      -19.88848       -1.46841
H         -7.88693      -17.23031       -0.21404
H        -11.42032      -21.62221       -2.62798
H        -13.21904      -17.60101       -0.21610
