96

C         -1.62765       -5.55746       -2.50127
O         -1.88634       -6.60766       -1.94973
C         -0.45681       -4.71363       -2.19742
C         -0.35313       -3.66263       -3.11910
C          0.66203       -2.72400       -2.93710
C          1.56623       -2.87352       -1.87446
C          1.44225       -3.94591       -0.98340
C          0.42119       -4.87949       -1.13200
Br         2.66859       -4.10271        0.44793
C         -1.46682       -3.78646       -4.11380
C         -1.52616       -3.11393       -5.28920
C         -0.50782       -2.21192       -5.73162
N          0.32091       -1.48527       -6.10307
C         -2.58667       -3.28398       -6.22462
N         -3.44494       -3.39333       -6.99449
C         -2.37363       -4.87093       -3.62021
C         -3.65538       -5.16722       -3.92955
C         -4.50235       -6.21273       -3.34199
C         -5.77511       -6.07131       -2.91987
C         -6.59209       -7.11780       -2.33353
C         -7.77320       -6.69691       -1.84712
C         -8.00334       -5.27453       -2.01420
S         -6.65307       -4.56441       -2.92955
C         -9.02870       -4.53807       -1.53264
C        -10.15547       -4.96279       -0.71368
C        -10.88766       -3.94437       -0.22497
C        -10.39535       -2.64101       -0.62598
S         -9.12385       -2.79888       -1.79588
C        -10.82594       -1.46665       -0.14155
C        -10.30047       -0.15732       -0.52397
C        -10.70885        1.02839       -0.05472
C        -10.26883        2.31857       -0.54378
C        -11.13682        3.30407       -0.25575
C        -12.31354        2.81128        0.44151
S        -11.95596        1.23244        1.13505
C        -13.55311        3.33075        0.42973
C        -13.99523        4.54254       -0.23015
C        -15.33107        4.65930       -0.29870
C        -16.03776        3.56682        0.33346
S        -14.93272        2.47400        1.10970
C        -17.36376        3.37963        0.31848
C        -18.06298        2.31912        1.02997
C        -19.18514        1.70976        0.62986
C        -19.97413        0.82336        1.45379
C        -21.21737        0.64261        0.98102
C        -21.46309        1.36244       -0.25810
S        -19.93556        1.94359       -0.92111
C        -22.65338        1.74795       -0.75039
C        -23.94432        1.59939       -0.10526
C        -24.83974        2.51058       -0.51795
C        -24.32026        3.39842       -1.53716
S        -22.81839        2.77979       -2.16707
C        -24.87472        4.56197       -1.90965
C        -24.32764        5.50133       -2.87226
C        -23.15427        6.15402       -2.82803
C        -22.66087        6.76365       -4.10859
O        -23.30784        7.07960       -5.08620
C        -21.19694        6.84226       -3.96999
C        -20.80596        6.44772       -2.67797
C        -22.03597        6.21070       -1.86819
C        -22.11163        6.28099       -0.51582
C        -20.96211        6.43887        0.31952
N        -20.02410        6.56495        0.98601
C        -23.35869        6.32739        0.17229
N        -24.36384        6.39730        0.74947
C        -19.45003        6.34130       -2.39880
C        -18.51936        6.67242       -3.39495
C        -18.94457        7.09490       -4.66336
C        -20.29845        7.17846       -4.97140
Br       -17.65553        7.52884       -5.97617
H          0.79381       -1.85403       -3.57186
H          2.36139       -2.13992       -1.74714
H          0.29769       -5.70264       -0.43548
H         -4.18830       -4.58706       -4.67846
H         -4.03478       -7.19359       -3.25818
H         -6.26084       -8.14595       -2.27913
H         -8.48414       -7.35256       -1.36066
H        -10.37990       -5.99706       -0.49198
H        -11.74965       -4.06617        0.41359
H        -11.62507       -1.47772        0.59756
H         -9.54348       -0.14539       -1.30466
H         -9.36561        2.45061       -1.12360
H        -11.01246        4.33016       -0.57006
H        -13.31150        5.27148       -0.64150
H        -15.84143        5.49020       -0.76527
H        -17.99209        4.08636       -0.21747
H        -17.66179        2.07442        2.01216
H        -19.61619        0.42140        2.39206
H        -21.97364        0.06875        1.49743
H        -24.13306        0.89241        0.69068
H        -25.82971        2.62049       -0.09590
H        -25.83020        4.85832       -1.47842
H        -24.95250        5.60687       -3.76186
H        -19.07335        5.99527       -1.44289
H        -17.45643        6.59048       -3.17414
H        -20.64871        7.47272       -5.95571
