90

C         -6.50540       -1.81687       -2.57074
O         -5.83782       -1.77693       -1.55839
C         -6.03226       -1.40383       -3.89298
C         -7.02885       -1.60032       -4.85959
C         -6.72795       -1.23924       -6.16849
C         -5.46208       -0.70777       -6.47230
C         -4.49799       -0.52851       -5.47319
C         -4.77448       -0.87609       -4.15881
Br        -2.81148        0.19648       -5.91897
C         -8.24363       -2.18254       -4.19690
C         -9.37344       -2.58840       -4.82203
C         -9.56966       -2.48430       -6.23363
N         -9.73720       -2.40236       -7.37779
C        -10.47833       -3.17271       -4.14318
N        -11.37735       -3.64359       -3.58054
C         -7.93426       -2.26638       -2.74261
C         -8.68258       -2.59633       -1.67094
C         -8.22873       -2.60539       -0.30588
C         -8.31341       -1.50886        0.53012
C         -8.91712       -0.25383        0.21068
N         -9.43901        0.74037       -0.07667
S         -7.58574       -1.80862        2.04076
C         -7.18543       -3.42572        1.61857
C         -7.63602       -3.73711        0.34757
C         -7.52202       -5.03663       -0.25005
N         -7.46456       -6.07623       -0.76368
C         -6.46154       -4.25250        2.54588
N         -6.57351       -4.08478        3.91063
C         -5.76388       -4.99666        4.51744
C         -5.34136       -5.43902        5.78837
C         -4.43751       -6.45048        5.51872
N         -4.32190       -6.62804        4.16075
C         -5.14472       -5.72389        3.55881
C         -5.56675       -5.28031        2.28717
C         -3.63816       -7.27024        6.33393
C         -4.04665       -7.63469        7.55908
C         -3.22009       -8.42594        8.40818
S         -2.13037       -9.55021        7.72113
C         -3.13382       -8.44769        9.79251
C         -3.94755       -7.61845       10.70093
O         -4.93532       -6.97544       10.36718
C         -3.44365       -7.64986       12.06628
C         -3.83236       -6.87162       13.13849
N         -3.05022       -7.21395       14.21161
C         -3.05997       -6.54050       15.49898
C         -4.04945       -7.15344       16.47165
C         -2.20068       -8.23273       13.85976
C         -2.40372       -8.51286       12.52275
C         -1.70203       -9.47499       11.68260
O         -0.86566      -10.25764       12.11605
C         -2.08430       -9.35659       10.26222
C         -1.52723      -10.08924        9.22251
C         -0.54082      -11.11695        9.24878
C         -0.48719      -12.09626        8.32723
C          0.51834      -13.16114        8.35118
C          0.20579      -14.42405        7.83809
C          1.15391      -15.44563        7.87381
C          2.42584      -15.18341        8.40442
C          2.78872      -13.91653        8.89334
C          1.80607      -12.91839        8.85091
C          4.15246      -13.62751        9.47083
O          4.27991      -12.27745        9.90801
N          3.37371      -16.28418        8.43602
O          3.04369      -17.29386        9.07053
O          4.43490      -16.13291        7.81762
H         -7.42480       -1.34125       -6.99211
H         -5.23851       -0.43303       -7.50241
H         -4.04743       -0.74221       -3.36327
H         -9.72344       -2.88489       -1.77574
H         -7.13808       -3.41075        4.41125
H         -5.62573       -5.06885        6.76361
H         -3.75035       -7.29446        3.65533
H         -5.24092       -5.65779        1.32732
H         -2.67514       -7.57819        5.93577
H         -5.01279       -7.31228        7.94005
H         -4.57803       -6.08836       13.20588
H         -3.29878       -5.48644       15.31845
H         -2.04260       -6.58545       15.90330
H         -5.07362       -7.08174       16.09100
H         -4.00586       -6.63134       17.43261
H         -3.82905       -8.21147       16.64656
H         -1.50049       -8.65686       14.56939
H          0.16076      -11.10284       10.07846
H         -1.20872      -12.16193        7.51594
H         -0.78240      -14.62692        7.42865
H          0.89633      -16.43252        7.49490
H          2.04106      -11.92591        9.22992
H          4.93313      -13.79641        8.72500
H          4.32935      -14.26666       10.34093
H          4.25000      -11.71777        9.11284
