96

C         -5.81476       -3.11984       -4.56074
O         -5.92944       -4.11929       -3.88048
C         -5.21085       -1.87020       -4.09733
C         -4.96500       -1.00781       -5.17605
C         -4.39477        0.22910       -4.89644
C         -4.07703        0.56021       -3.56707
C         -4.34510       -0.33110       -2.51938
C         -4.92069       -1.56721       -2.77461
Br        -3.93046        0.15986       -0.74271
C         -5.42425       -1.67861       -6.43560
C         -5.13748       -1.27968       -7.69880
C         -4.36313       -0.11658       -7.99017
N         -3.72784        0.82156       -8.23978
C         -5.53343       -2.01209       -8.85299
N         -5.84941       -2.60115       -9.80375
C         -6.14104       -2.91333       -6.01779
C         -7.02484       -3.69308       -6.67084
C         -7.78754       -4.79335       -6.09141
C         -8.68761       -4.69764       -5.09695
C         -9.33022       -5.81614       -4.44712
C        -10.02494       -5.47683       -3.34831
C        -10.02276       -4.05127       -3.06497
S         -9.20256       -3.19449       -4.37606
C        -10.52801       -3.42382       -1.98349
C        -11.16847       -4.00864       -0.82105
C        -11.44093       -3.12671        0.15826
C        -11.02687       -1.76677       -0.13831
S        -10.47028       -1.68188       -1.78924
C        -11.07909       -0.73138        0.72532
C        -10.59667        0.59370        0.44351
C         -9.53565        1.00528       -0.36624
C         -9.50133        2.40043       -0.53344
C        -10.31642        3.02622        0.37365
S        -11.29767        1.99274        1.23846
C         -9.99704        4.40263        0.35233
C         -8.99464        4.62366       -0.57517
C         -8.71703        3.38782       -1.28747
C         -8.06027        3.14363       -2.44728
C         -8.31187        1.76141       -3.02741
N         -8.52059        0.61474       -3.50868
C         -7.17592        4.13077       -3.19151
N         -6.44228        4.94969       -3.80891
C         -8.52440        5.94413       -0.51750
C         -9.23008        6.70812        0.42378
S        -10.45186        5.74105        1.22122
C         -9.06252        8.06095        0.86439
C         -8.60836        9.07101        0.10627
C         -8.29846       10.39254        0.61017
C         -7.62959       11.15766       -0.26873
C         -7.38111       10.49941       -1.54073
S         -8.27282        8.98726       -1.59857
C         -6.57677       10.90591       -2.54112
C         -5.79386       12.12423       -2.59737
C         -5.02245       12.22618       -3.69136
C         -5.10965       11.08406       -4.57356
S         -6.29436        9.94455       -3.99549
C         -4.36923       10.89678       -5.67880
C         -4.37506        9.68035       -6.45909
C         -4.69404        9.41912       -7.73452
C         -4.60193        7.95490       -8.08290
O         -4.21893        7.03411       -7.38980
C         -5.04843        7.82172       -9.46482
C         -5.37057        9.07575      -10.00374
C         -5.16586       10.13531       -8.94407
C         -5.37903       11.45914       -9.12860
C         -5.82575       12.01608      -10.36253
N         -6.18050       12.49013      -11.36057
C         -5.17108       12.46287       -8.13562
N         -5.00947       13.34592       -7.40620
C         -5.78955        9.10116      -11.33112
C         -5.88042        7.90227      -12.06304
C         -5.55779        6.67418      -11.47546
C         -5.13328        6.61948      -10.15712
Br        -5.69813        5.08425      -12.48558
H         -4.18212        0.97258       -5.65723
H         -3.61777        1.52588       -3.35960
H         -5.15129       -2.27529       -1.98459
H         -7.27217       -3.53267       -7.71527
H         -7.56706       -5.76870       -6.52095
H         -9.21244       -6.83263       -4.79618
H        -10.53418       -6.19768       -2.72578
H        -11.39182       -5.06352       -0.74766
H        -11.90665       -3.39810        1.09588
H        -11.50896       -0.89594        1.71064
H         -8.86277        0.30441       -0.84234
H         -7.69072        6.32413       -1.09421
H         -9.28336        8.25935        1.91185
H         -8.54163       10.70464        1.61729
H         -7.27987       12.15422       -0.04042
H         -5.82980       12.88225       -1.82802
H         -4.37680       13.06881       -3.89833
H         -3.62296       11.63887       -5.95093
H         -4.08969        8.82799       -5.82991
H         -6.05831       10.00787      -11.85936
H         -6.20810        7.94047      -13.10114
H         -4.87362        5.68265       -9.67252
