98

C         -4.33974       -2.46303        4.95572
O         -3.63983       -3.28051        4.39594
C         -4.27640       -2.14968        6.38764
C         -5.09073       -1.04757        6.69383
C         -5.18181       -0.65514        8.02471
C         -4.45835       -1.35787        9.00287
C         -3.65657       -2.45332        8.65577
C         -3.55410       -2.86418        7.33319
Br        -2.72807       -3.39552       10.00506
C         -5.72360       -0.55609        5.42950
C         -6.36530        0.62719        5.26819
C         -6.57388        1.55626        6.33351
N         -6.75167        2.31056        7.19256
C         -6.85846        1.07129        4.00776
N         -7.26945        1.42833        2.98314
C         -5.40138       -1.56370        4.37961
C         -6.00251       -1.80510        3.20028
C         -5.68471       -2.91170        2.36124
C         -4.74661       -3.00537        1.33059
C         -4.78698       -4.27716        0.71477
C         -5.72936       -5.08975        1.30344
S         -6.59581       -4.38667        2.53265
C         -5.71112       -6.34794        0.66714
C         -4.76573       -6.33504       -0.32963
C         -4.12783       -5.01583       -0.36731
C         -3.17154       -4.57823       -1.20950
C         -2.63307       -5.40912       -2.23058
N         -2.19385       -6.08189       -3.06806
C         -2.65991       -3.25413       -1.13146
N         -2.24741       -2.17057       -1.07060
C         -4.70335       -7.57941       -0.99741
C         -5.59993       -8.52036       -0.46026
S         -6.53161       -7.77509        0.83760
C         -5.82965       -9.90078       -0.84141
C         -6.21647      -10.79560        0.09320
C         -6.44590      -12.18537       -0.20322
C         -6.28527      -12.73696       -1.55214
C         -5.91048      -12.02151       -2.61080
S         -5.55245      -10.31788       -2.53639
C         -6.58065      -14.11266       -1.46130
C         -6.89261      -14.43125       -0.16126
C         -7.23210      -15.78346        0.01309
C         -7.12683      -16.45613       -1.19501
S         -6.65035      -15.41748       -2.50209
C         -6.79176      -13.21914        0.62098
C         -7.03872      -13.11181        2.04030
C         -6.83101      -14.10152        2.92185
C         -7.07565      -13.92516        4.30891
C         -7.02157      -12.76634        5.08424
C         -7.32905      -13.03855        6.42763
C         -7.58541      -14.37556        6.63119
S         -7.48769      -15.31896        5.27171
C         -7.88910      -14.57845        7.99153
C         -7.84425      -13.36456        8.63700
C         -7.45026      -12.32178        7.69131
C         -7.21264      -11.01775        7.93399
C         -7.33412      -10.47909        9.24342
N         -7.44052      -10.07740       10.32733
C         -6.80758      -10.12281        6.90380
N         -6.47858       -9.39893        6.05990
C         -8.22820      -13.48557        9.98456
C         -8.44320      -14.82033       10.34205
S         -8.28161      -15.87071        8.95516
C         -8.81710      -15.39941       11.59013
C         -8.50306      -14.90056       12.79493
C         -9.30883      -15.38073       13.96537
O         -9.98624      -16.38341       14.04592
C         -9.18745      -14.32430       14.98500
C         -8.32809      -13.30254       14.53646
C         -7.70727      -13.75575       13.26001
C         -6.48612      -13.37343       12.81054
C         -5.80749      -12.21997       13.29410
N         -5.26465      -11.26410       13.66580
C         -5.74960      -14.14592       11.86252
N         -5.12285      -14.77121       11.11239
C         -8.17005      -12.17303       15.32598
C         -8.81013      -12.12262       16.57349
C         -9.61787      -13.18289       17.01351
C         -9.83634      -14.29546       16.20880
Br       -10.41021      -13.09835       18.72731
H         -5.80242        0.16745        8.36288
H         -4.53537       -1.04570       10.04367
H         -2.95325       -3.71966        7.03997
H         -6.83722       -1.20999        2.84853
H         -4.08770       -2.18490        1.07355
H         -4.04040       -7.82140       -1.82029
H         -6.35834      -10.50163        1.12746
H         -5.80429      -12.49630       -3.58095
H         -7.53318      -16.26133        0.93647
H         -7.31200      -17.50477       -1.38286
H         -7.40535      -12.14675        2.38056
H         -6.45155      -15.06647        2.60005
H         -6.75797      -11.80188        4.66865
H         -8.33754      -12.66529       10.68053
H         -9.47709      -16.26799       11.54094
H         -7.56296      -11.32394       15.02850
H         -8.66036      -11.24979       17.20755
H        -10.47702      -15.11544       16.51786
