96

C         -6.68645       -1.16029        1.16939
O         -5.89996       -1.32697        2.07616
C         -8.12657       -0.91125        1.30999
C         -8.65804       -0.40913        0.10824
C        -10.02714       -0.19048        0.03196
C        -10.82437       -0.47942        1.15267
C        -10.25723       -0.99217        2.33059
C         -8.88880       -1.20931        2.42624
Br       -11.37268       -1.43392        3.79088
C         -7.54309       -0.29990       -0.87972
C         -7.52112        0.47337       -1.98702
C         -8.62987        1.27715       -2.38614
N         -9.53429        1.93745       -2.70018
C         -6.35697        0.59468       -2.80112
N         -5.40428        0.67664       -3.45762
C         -6.41945       -1.07816       -0.30200
C         -5.48892       -1.82410       -0.92225
C         -4.65939       -2.76988       -0.25051
S         -5.14421       -4.43370       -0.10134
C         -3.65915       -4.92900        0.63556
C         -2.81106       -3.85431        0.73885
C         -3.41541       -2.68064        0.28384
C         -2.51618       -1.59748        0.44904
C         -1.25797       -1.98406        0.94714
C         -0.09082       -1.13843        1.16787
O          0.99908       -1.49199        1.60201
O         -0.38372        0.14780        0.80523
C          0.68270        1.07594        1.00613
S         -1.11136       -3.70237        1.33431
C         -3.38050       -6.26794        1.05040
C         -3.69036       -6.62886        2.31400
C         -3.41709       -7.95281        2.82205
C         -2.85552       -9.01763        1.97680
C         -2.49442       -8.85153        0.70462
S         -2.64805       -7.33297       -0.14393
C         -2.74749      -10.16611        2.79203
C         -3.18682       -9.87117        4.06018
C         -3.08390      -10.95037        4.95304
C         -2.56374      -12.05728        4.29547
S         -2.21141      -11.73984        2.62304
C         -3.59947       -8.48567        4.06796
C         -4.07866       -7.77974        5.23236
C         -5.18436       -8.12958        5.90688
C         -5.66250       -7.37628        7.01756
C         -4.97374       -6.64393        7.98999
C         -5.85714       -6.12155        8.95800
C         -7.17057       -6.41705        8.66470
S         -7.38742       -7.32874        7.29718
C         -7.99237       -5.94490        9.71024
C         -7.18707       -5.40901       10.68370
C         -5.80227       -5.39486       10.22333
C         -4.75617       -4.77687       10.79765
C         -3.46621       -4.77992       10.20044
N         -2.41523       -4.79115        9.70718
C         -4.90800       -4.04104       12.00872
N         -5.08242       -3.47114       13.00385
C         -7.90808       -5.15024       11.86208
C         -9.28533       -5.27174       11.67435
S         -9.61187       -5.91687       10.06659
C        -10.40501       -5.07826       12.54188
C        -10.38264       -4.63333       13.80755
C        -11.58321       -4.98207       14.64342
O        -12.70717       -5.24323       14.27013
C        -11.08764       -5.04674       16.02930
C         -9.73326       -4.66630       16.08340
C         -9.35340       -4.15291       14.73767
C         -8.45028       -3.16358       14.52207
C         -7.49013       -2.77195       15.49685
N         -6.70278       -2.49495       16.30631
C         -8.45386       -2.39697       13.31698
N         -8.47252       -1.77050       12.34154
C         -9.05722       -4.77896       17.28880
C         -9.76623       -5.19451       18.42573
C        -11.13073       -5.51624       18.34799
C        -11.80839       -5.46680       17.13489
Br       -12.05703       -6.02228       19.91574
H        -10.52092        0.16767       -0.86628
H        -11.90004       -0.31722        1.09386
H         -8.42768       -1.62926        3.31449
H         -5.40741       -1.83129       -2.00534
H         -2.74918       -0.56734        0.20395
H          0.36121        2.04818        0.62140
H          1.57906        0.76883        0.45824
H          0.89464        1.17999        2.07447
H         -4.16629       -5.92438        2.98971
H         -2.06406       -9.67711        0.14640
H         -3.35454      -10.94176        6.00086
H         -2.36168      -13.03882        4.70483
H         -3.49716       -6.90516        5.51508
H         -5.77240       -8.98620        5.58086
H         -3.89337       -6.56066        8.00358
H         -7.44815       -4.88837       12.79981
H        -11.36412       -5.43667       12.15853
H         -8.00092       -4.55286       17.39560
H         -9.24404       -5.25398       19.37963
H        -12.85494       -5.74063       17.04507
