115

C         -6.10808       -4.09958       -2.96295
O         -5.17397       -4.84724       -3.16106
C         -7.48667       -4.38743       -3.36335
C         -8.21484       -3.19550       -3.47894
C         -9.53955       -3.28397       -3.89171
C        -10.10029       -4.54831       -4.14529
C         -9.34793       -5.71854       -3.97143
C         -8.01657       -5.65052       -3.58512
Br       -10.16049       -7.40298       -4.24340
C         -7.32428       -2.06356       -3.06310
C         -7.55240       -0.74449       -3.30019
C         -8.72872       -0.27097       -3.95016
N         -9.68660        0.12232       -4.47163
C         -6.62400        0.26676       -2.94945
N         -5.89075        1.11739       -2.65303
C         -6.11168       -2.68448       -2.45185
C         -5.29738       -2.19961       -1.48618
C         -4.35653       -2.94743       -0.68758
S         -4.69723       -4.55802       -0.22183
C         -3.25853       -4.77202        0.67360
C         -2.66003       -3.53227        0.87600
C         -3.20025       -2.51306       -0.03077
C         -2.56677       -1.13639       -0.11176
N         -2.40519       -0.76510       -1.51405
C         -1.18891       -1.08320        0.57938
C         -1.26289       -1.71459        1.96667
C         -1.54366       -3.22486        1.85538
N         -1.93076       -3.71702        3.17674
C         -2.87706       -6.07303        1.15245
C         -3.78713       -7.03653        1.39103
C         -3.57482       -8.39689        1.88464
C         -4.48229       -9.43671        1.56815
C         -4.39537      -10.74853        2.10305
C         -3.39932      -11.13345        3.02314
C         -2.45863      -10.11928        3.34207
C         -2.54237       -8.76653        2.77608
N         -1.52155       -8.05353        3.27224
O         -0.81566       -8.90570        4.09396
N         -1.38624      -10.16102        4.14350
C         -3.19803      -12.53219        3.48124
C         -2.33759      -13.40100        2.62830
C         -2.90892      -14.07549        1.53945
C         -2.12348      -14.81601        0.66310
C         -0.75300      -14.89218        0.85716
C         -0.16793      -14.22872        1.92664
C         -0.95348      -13.49021        2.80844
F         -0.35882      -12.84605        3.82186
F          1.16030      -14.28111        2.09807
F          0.00619      -15.59356        0.00417
F         -2.69146      -15.43824       -0.37930
F         -4.22996      -13.98910        1.31502
C         -3.84369      -13.05606        4.56681
C         -4.85100      -12.25716        5.32133
C         -6.20154      -12.31345        4.94911
C         -7.18692      -11.69965        5.71843
C         -6.83975      -11.00707        6.86798
C         -5.50486      -10.90616        7.23464
C         -4.51705      -11.52737        6.46893
F         -3.23805      -11.43697        6.86187
F         -5.16914      -10.22710        8.34063
F         -7.79197      -10.44584        7.62668
F         -8.47380      -11.79564        5.35618
F         -6.56385      -12.98318        3.84365
C         -3.56688      -14.46363        5.01543
C         -4.32307      -15.55296        4.54312
C         -4.00202      -16.84471        4.97411
C         -2.90114      -17.06721        5.83290
C         -2.18709      -15.99563        6.34543
C         -2.53076      -14.69599        5.94482
C         -2.70349      -18.49362        6.01078
C         -3.71038      -19.18836        5.31172
C         -4.65961      -18.19254        4.61317
C         -6.04814      -18.37202        5.29289
C         -7.18207      -17.49484        4.78380
C         -4.71005      -18.44939        3.08684
C         -3.36944      -18.33959        2.35933
C         -3.76859      -20.57978        5.31718
C         -2.78578      -21.28338        6.01252
C         -1.76042      -20.59794        6.68091
C         -1.71536      -19.19737        6.68422
H        -10.18244       -2.42036       -4.01936
H        -11.13768       -4.61176       -4.47143
H         -7.41008       -6.53850       -3.43894
H         -5.39686       -1.16875       -1.16288
H         -3.23747       -0.41786        0.37552
H         -1.87568       -1.49415       -1.99230
H         -1.84163        0.08108       -1.58111
H         -0.85226       -0.04234        0.66405
H         -0.42917       -1.61477       -0.01038
H         -2.04684       -1.20550        2.54557
H         -0.32100       -1.54978        2.50535
H         -0.63178       -3.74036        1.53133
H         -2.83019       -3.31531        3.43752
H         -1.26176       -3.40806        3.87801
H         -1.81572       -6.25016        1.30865
H         -4.83964       -6.82474        1.22447
H         -5.28820       -9.23109        0.85933
H         -5.12196      -11.48892        1.76318
H         -5.13618      -15.39406        3.84066
H         -1.36936      -16.15080        7.04269
H         -1.96923      -13.85719        6.35521
H         -5.95712      -18.21050        6.37656
H         -6.37571      -19.41477        5.17633
H         -6.98404      -16.43481        4.95467
H         -8.10309      -17.74327        5.32312
H         -7.37459      -17.65692        3.72032
H         -5.39793      -17.74236        2.60937
H         -5.11535      -19.45223        2.89733
H         -2.97181      -17.32220        2.40734
H         -3.49943      -18.59168        1.30180
H         -2.62042      -19.02234        2.77073
H         -4.55767      -21.11463        4.79770
H         -2.81076      -22.37093        6.03313
H         -0.99156      -21.16508        7.20109
H         -0.90930      -18.68566        7.19874
