109

C          0.01679       -0.30663        5.27343
C          1.33426       -0.77816        4.65961
C          2.08805       -1.88580        5.44267
C          3.42871       -2.25914        4.74108
C          3.33023       -2.80078        3.31379
C          2.37192       -1.45974        6.90014
C          3.13383       -0.39732        7.36897
C          3.20828       -0.19420        8.74960
C          2.52527       -1.03770        9.64338
C          1.76899       -2.10954        9.16904
C          1.70445       -2.31977        7.79930
C          1.00671       -3.33771        7.05427
C          0.23283       -4.39896        7.49880
C         -0.31792       -5.26528        6.55492
C         -0.11033       -5.04620        5.18362
C         -0.65503       -5.98115        4.21111
C         -1.85540       -5.76497        3.66316
C         -2.40873       -6.66945        2.72006
C         -1.90390       -7.86043        2.18672
C         -2.80270       -8.43832        1.26909
C         -3.93427       -7.66241        1.14055
S         -3.98198       -6.29889        2.07214
C         -4.77888       -8.24898        0.18862
S         -6.20963       -7.89852       -0.55002
C         -6.03286       -9.38459       -1.46014
C         -7.05118       -9.76414       -2.42678
C         -6.74168      -10.44450       -3.62581
C         -7.72292      -10.82249       -4.57385
C         -9.09730      -10.54916       -4.40537
C        -10.09707      -10.96790       -5.38133
C        -11.24852      -10.31689       -5.61024
C        -12.13174      -10.81013       -6.59785
S        -13.31790      -11.94566       -6.17391
C        -13.91360      -12.08837       -7.79800
C        -15.04070      -12.94529       -8.05508
C        -16.11252      -13.05654       -7.24378
C        -16.95544      -14.30572       -7.27619
O        -17.16939      -15.04098       -8.21559
C        -17.40141      -14.50150       -5.87125
C        -18.06099      -15.59431       -5.33496
C        -18.22949      -15.61564       -3.94949
Br       -19.18646      -17.03356       -3.14285
C        -17.69995      -14.59959       -3.13430
C        -17.06335      -13.48998       -3.70049
C        -16.97281      -13.41947       -5.08048
C        -16.48826      -12.37043       -6.00033
C        -16.70972      -11.04054       -5.83619
C        -16.63554      -10.14389       -6.94125
N        -16.65137       -9.41969       -7.84893
C        -17.18255      -10.49097       -4.60902
N        -17.57958      -10.06156       -3.59795
C        -13.00754      -11.45409       -8.65626
C        -12.19700      -10.48981       -7.93838
C        -11.40882       -9.41186       -8.63736
N        -11.62024       -8.14407       -7.94095
C        -11.86528       -9.25138      -10.09526
C        -11.85980      -10.60820      -10.78890
C        -12.85393      -11.61331      -10.15322
N        -12.30352      -12.95433      -10.38474
C         -9.43748       -9.88621       -3.20100
N        -10.63457       -9.51575       -2.72131
O        -10.40077       -8.90921       -1.51061
N         -9.06376       -8.91940       -1.19385
C         -8.42745       -9.50136       -2.22233
N         -4.89942      -10.05834       -1.25897
C         -4.19970       -9.40281       -0.28586
C         -2.85586       -9.66515        0.36227
C          0.61747       -3.94638        4.73395
C          1.20523       -3.11918        5.67641
H         -0.42691        0.46822        4.63957
H          0.16089        0.12300        6.26850
H         -0.70863       -1.12245        5.34677
H          1.98801        0.09557        4.54298
H          1.10240       -1.12943        3.64738
H          3.97327       -3.00067        5.34184
H          4.07170       -1.37000        4.70399
H          2.85191       -3.78211        3.28183
H          4.33133       -2.93853        2.89330
H          2.78758       -2.12262        2.64989
H          3.65918        0.26419        6.68989
H          3.79813        0.63112        9.14474
H          2.58714       -0.85363       10.71287
H          1.24217       -2.75457        9.86407
H          0.06177       -4.56949        8.55685
H         -0.91107       -6.11338        6.88722
H         -0.02630       -6.83098        3.97337
H         -2.42958       -4.88241        3.94331
H         -0.93870       -8.27625        2.44556
H         -5.69699      -10.68569       -3.83622
H         -7.38878      -11.33717       -5.47615
H         -9.85058      -11.85962       -5.95389
H        -11.52325       -9.39575       -5.10742
H        -14.94312      -13.62720       -8.89978
H        -18.42173      -16.39617       -5.97012
H        -17.79182      -14.65882       -2.05069
H        -16.65499      -12.72030       -3.05159
H        -10.34313       -9.67014       -8.60527
H        -12.62088       -7.94541       -7.91341
H        -11.20007       -7.38666       -8.47545
H        -11.19055       -8.56336      -10.62002
H        -12.87358       -8.82060      -10.15380
H        -10.82881      -10.99121      -10.75024
H        -12.09277      -10.48720      -11.85393
H        -13.83048      -11.52519      -10.63981
H        -11.45625      -13.05687       -9.82180
H        -11.98558      -13.02503      -11.35122
H         -2.04481       -9.65379       -0.37014
H         -2.85957      -10.59092        0.94345
H          0.72556       -3.75871        3.67123
