85

C          1.52975      -11.52911        1.24470
O          1.15324      -10.43298        0.88674
C          2.91211      -11.99158        1.12616
C          3.04461      -13.30501        1.59955
C          4.29532      -13.90293        1.49573
C          5.36988      -13.17408        0.95901
C          5.19514      -11.86097        0.50707
C          3.95301      -11.24897        0.58548
Br         6.65746      -10.94398       -0.25721
C          1.71829      -13.75655        2.13680
C          1.50264      -14.88977        2.85819
C          2.52307      -15.84627        3.14029
N          3.35168      -16.63147        3.37510
C          0.24863      -15.21682        3.44515
N         -0.77419      -15.48518        3.93181
C          0.74171      -12.66985        1.83053
C         -0.60176      -12.64072        1.91600
C         -1.50705      -11.54556        1.57372
C         -1.42187      -10.34902        2.19381
C         -2.29667       -9.25247        1.87265
C         -3.33356       -9.36151        0.83662
C         -3.59332      -10.46992        0.14522
S         -2.73611      -11.96630        0.38098
C         -3.96710       -8.10422        0.76636
C         -3.39794       -7.25213        1.67997
C         -4.01541       -5.99005        1.71843
C         -5.02791       -5.92859        0.77456
S         -5.21616       -7.41410       -0.10239
C         -2.33890       -7.97363        2.35510
C         -1.49933       -7.42349        3.39642
C         -1.19875       -6.12091        3.50950
C         -0.39038       -5.56665        4.53813
C         -0.76503       -4.45771        5.45152
N          0.15110       -4.05592        6.28628
C          1.20766       -4.85405        5.97950
C          0.86737       -5.76929        4.91805
C          2.05575       -6.59713        4.56960
S          2.18405       -7.80703        3.43912
C          3.08954       -6.04599        5.50547
C          2.47777       -5.01871        6.32576
N          3.37955       -4.48145        7.18726
C          4.47170       -5.13395        6.90230
C          4.37579       -6.14891        5.82663
C          5.41114       -6.92815        5.29988
N          5.37126       -7.26580        3.96575
C          6.51101       -7.94754        3.66660
C          7.18802       -8.55540        2.59060
C          8.34388       -9.07819        3.14416
N          8.38233       -8.77145        4.48783
C          7.24825       -8.07339        4.79303
C          6.57890       -7.42667        5.85792
C          9.41590       -9.77368        2.53356
C         10.17580      -10.66890        3.18428
C         11.23146      -11.36207        2.53725
C         12.36821      -11.81679        3.15754
C         13.20407      -12.47328        2.25614
C         14.35136      -12.91284        2.93683
C         14.37553      -12.59449        4.29404
S         12.96354      -11.70699        4.86947
C         15.44923      -12.93123        5.27483
F         15.31746      -13.57117        2.35152
C         12.79180      -12.56758        0.97403
S         11.26002      -11.79644        0.85956
H          4.49973      -14.92222        1.80251
H          6.34950      -13.64521        0.89175
H          3.78154      -10.23585        0.23448
H         -1.16088      -13.51593        2.23688
H         -0.63673      -10.16630        2.91837
H         -4.38109      -10.47775       -0.60094
H         -3.76651       -5.16700        2.37459
H         -5.67698       -5.09027        0.56070
H         -1.09798       -8.13611        4.11411
H         -1.55900       -5.39894        2.78251
H         -1.77791       -4.03062        5.39426
H          5.43886       -4.95953        7.39562
H          4.64354       -7.08142        3.28294
H          6.87298       -8.60454        1.55963
H          9.10751       -8.98354        5.16010
H          6.90723       -7.33362        6.88402
H          9.57813       -9.56711        1.47798
H         10.00216      -10.88798        4.23438
H         16.29262      -13.42141        4.77646
H         15.06999      -13.61544        6.04041
H         15.83019      -12.02919        5.76378
H         13.26764      -13.02402        0.12008
