116

C          6.48068        2.40772       -0.19007
O          5.48704        1.71786       -0.26897
C          6.63675        3.74063       -0.79160
C          7.79818        4.36610       -0.30847
C          8.15720        5.59832       -0.83945
C          7.32737        6.19287       -1.80345
C          6.15864        5.55179       -2.24145
C          5.79974        4.30543       -1.74117
Br         5.07008        6.38533       -3.54220
C          8.41696        3.47104        0.71228
C          9.25962        3.85410        1.69885
C          9.74316        5.19475        1.82701
N         10.12786        6.28105        1.92523
C          9.65851        2.96858        2.74446
N          9.97000        2.24487        3.59007
C          7.75551        2.15171        0.56376
C          8.25107        0.92482        0.80897
C          7.66696       -0.36971        0.46471
C          6.48957       -0.77913        0.97746
C          5.90615       -2.05241        0.63563
C          6.52729       -2.96727       -0.32962
C          7.70673       -2.75527       -0.91001
S          8.68235       -1.34732       -0.60005
C          5.65769       -4.06928       -0.46067
C          4.57551       -3.90459        0.37053
C          3.64506       -4.95468        0.27968
C          4.08826       -5.90133       -0.63568
S          5.61021       -5.47800       -1.35683
C          4.75021       -2.64431        1.05908
C          3.82666       -2.07859        2.00946
C          3.48490       -2.66103        3.16985
C          2.55068       -2.06279        4.06288
S          1.57177       -3.06833        5.08677
C          0.69224       -1.74167        5.75227
C          1.18372       -0.55994        5.27245
C          2.19712       -0.77764        4.33654
C          2.64289        0.48086        3.85376
C          1.98697        1.57306        4.44710
C          2.22415        2.98117        4.18206
O          2.07664        3.90706        4.96943
O          2.65901        3.12119        2.89550
C          2.92508        4.46246        2.48561
S          0.74845        1.15640        5.62374
C         -0.38812       -1.90911        6.66725
C         -0.07896       -1.94786        7.98855
C         -1.08511       -2.35689        8.94934
C         -1.03650       -2.49432       10.30065
C         -0.02711       -1.98783       11.32252
C          1.40419       -2.54606       11.09143
N          2.40786       -2.07933       12.05537
C         -0.03616       -0.42959       11.38212
N         -1.30661        0.15188       11.82985
C         -2.23459       -3.28192       10.61880
C         -2.56764       -3.98399       11.71365
C         -3.78461       -4.90617       11.74068
C         -4.68033       -4.79260       10.50947
C         -4.35813       -4.06107        9.42773
C         -3.08128       -3.39876        9.43173
C         -2.39436       -2.82179        8.43670
C         -2.74436       -2.58524        7.05740
C         -1.78401       -2.12636        6.22980
C         -4.57877       -4.69452       13.00559
C         -4.39410       -5.42237       14.11789
C         -5.13605       -5.19306       15.33188
C         -5.83438       -6.10879       16.01386
C         -6.17103       -5.80108       17.44187
O         -6.24644       -4.71161       17.96567
C         -6.30714       -7.11360       18.09376
C         -6.19617       -8.15029       17.14360
C         -6.13002       -7.52669       15.78826
C         -6.54456       -8.10734       14.63263
C         -6.87659       -9.48608       14.54610
N         -7.13271      -10.62129       14.49204
C         -6.81440       -7.36167       13.44953
N         -7.10534       -6.79331       12.47651
C         -6.17008       -9.46685       17.58978
C         -6.30431       -9.70846       18.96270
C         -6.44950       -8.66764       19.88236
C         -6.44258       -7.35035       19.44753
F         -6.54501       -6.34723       20.32742
F         -6.57459       -8.94139       21.18829
F         -6.28442      -10.97654       19.39497
H          9.06331        6.12400       -0.55455
H          7.60481        7.16278       -2.21483
H          4.91551        3.77792       -2.08505
H          9.25592        0.82141        1.21736
H          5.92474       -0.13309        1.64203
H          8.11536       -3.48634       -1.60046
H          2.71192       -5.04019        0.82156
H          3.60081       -6.82199       -0.92890
H          3.41468       -1.11953        1.71029
H          3.90461       -3.63016        3.43645
H          3.42076        0.62487        3.11443
H          2.96843        4.47526        1.39305
H          3.89891        4.77251        2.87567
H          2.13995        5.15455        2.80445
H          0.94473       -1.84129        8.31636
H         -0.33282       -2.33589       12.31797
H          1.78238       -2.29238       10.10086
H          1.37094       -3.64002       11.14886
H          2.53964       -1.07154       11.96434
H          3.31418       -2.48448       11.81971
H          0.22430       -0.00934       10.40376
H          0.71883       -0.07243       12.08923
H         -2.08739       -0.28521       11.34254
H         -1.32944        1.14106       11.58161
H         -1.91588       -3.99905       12.58075
H         -3.40006       -5.93705       11.74074
H         -5.60654       -5.36377       10.50240
H         -5.00164       -4.01029        8.55842
H         -3.76651       -2.72370        6.72513
H         -2.02524       -1.89238        5.19678
H         -5.34810       -3.92471       12.97957
H         -3.61500       -6.18238       14.15427
H         -4.98293       -4.20325       15.77076
H         -6.04317      -10.31870       16.93501
