125

C          1.68108       -1.96262        0.52755
O          1.12819       -2.51168       -0.39286
C          2.82628       -1.03339        0.42109
C          3.01185       -0.34604        1.62403
C          4.10539        0.52264        1.73655
C          4.96807        0.66405        0.63149
C          4.74504       -0.04482       -0.55142
C          3.66136       -0.91263       -0.68556
Br         5.95804        0.13672       -1.99294
C          1.95141       -0.77424        2.57604
C          1.50572       -0.08832        3.65994
C          2.07878        1.14859        4.07006
N          2.54616        2.15731        4.40251
C          0.37431       -0.51493        4.41322
N         -0.54531       -0.86745        5.02721
C          1.33949       -1.99025        1.99300
C          0.79206       -3.04737        2.62259
C          0.36649       -4.32279        2.02647
C         -0.94617       -4.49657        1.56137
C         -1.32823       -5.74940        1.07792
C         -0.41727       -6.82808        1.06010
C          0.87611       -6.66629        1.53249
C          1.26532       -5.40981        2.01443
C         -1.07987       -8.00475        0.53877
C         -2.41882       -7.69719        0.24124
C         -2.69689       -6.21066        0.52445
C         -3.83651       -6.02166        1.55857
C         -3.60250       -6.65885        2.92880
C         -2.97798       -5.43129       -0.79598
C         -4.20386       -5.86291       -1.59907
C         -3.29843       -8.68094       -0.21969
C         -2.84125       -9.99086       -0.45532
C         -1.48162      -10.26372       -0.16826
C         -0.60511       -9.28618        0.33573
C         -3.77343      -11.02802       -0.98769
C         -5.12031      -10.93078       -1.30298
C         -5.73131      -12.16265       -1.75858
C         -4.77668      -13.16397       -1.89530
S         -3.24289      -12.62789       -1.30875
C         -5.09010      -14.42388       -2.45257
O         -4.01809      -15.30950       -2.55902
C         -4.26770      -16.62630       -3.02260
C         -6.42761      -14.70441       -2.83969
C         -7.41388      -13.77504       -2.49351
C         -7.08038      -12.47443       -2.05744
O         -8.01698      -11.48104       -1.77563
C         -9.09699      -11.33833       -2.69767
S         -8.96133      -14.54320       -2.58295
C         -8.40983      -15.79228       -3.59502
C         -7.03504      -15.75740       -3.62809
C         -9.31194      -16.70165       -4.27820
C         -9.14095      -18.02521       -4.66558
C         -7.98531      -18.87063       -4.38245
O         -7.22575      -18.71790       -3.43480
C         -7.87465      -20.01176       -5.30310
C         -9.00791      -20.52644       -6.05870
C         -8.71380      -21.73877       -6.66691
S         -7.02268      -22.04822       -6.59752
C         -6.69760      -20.66456       -5.63884
C         -5.26506      -20.32579       -5.34129
F         -5.11222      -19.15956       -4.66860
F         -4.64416      -21.29135       -4.62324
F         -4.55963      -20.17052       -6.49413
C         -9.57420      -22.74635       -7.38288
F        -10.90287      -22.51163       -7.32404
F         -9.24711      -22.82493       -8.69870
F         -9.39540      -23.99032       -6.86166
C        -10.28532      -19.81534       -6.13647
O        -11.24759      -20.19730       -6.78527
C        -10.25913      -18.50639       -5.46972
C        -11.27909      -17.57869       -5.57176
S        -10.82889      -16.10302       -4.83666
C        -12.51498      -17.60653       -6.27837
C        -13.68701      -17.93307       -5.71841
C        -14.94214      -17.41747       -6.39120
O        -15.10790      -17.13437       -7.55644
C        -15.90549      -17.18661       -5.28706
C        -15.31930      -17.58494       -4.08050
C        -15.87798      -17.18685       -2.87660
C        -17.12447      -16.53987       -2.88196
C        -17.78632      -16.27992       -4.10823
C        -17.14587      -16.56859       -5.32985
C        -19.12880      -15.76231       -4.14924
N        -20.23067      -15.41654       -4.23796
C        -17.66024      -16.01896       -1.59789
O        -18.26345      -14.96312       -1.53399
O        -17.35884      -16.76070       -0.51430
C        -14.09292      -18.36181       -4.38249
C        -13.74971      -19.46091       -3.66761
C        -12.74140      -20.40478       -4.01959
N        -11.93327      -21.22352       -4.15735
C        -14.49378      -19.84523       -2.51386
N        -15.14913      -20.08861       -1.58108
H          4.33595        1.06527        2.63800
H          5.82756        1.33276        0.71733
H          3.48266       -1.48683       -1.57790
H          0.70241       -3.06174        3.70491
H         -1.65783       -3.67805        1.59584
H          1.57445       -7.49684        1.54683
H          2.27554       -5.29288        2.40181
H         -4.76999       -6.44076        1.16457
H         -4.01977       -4.95050        1.71208
H         -3.44605       -7.73903        2.85417
H         -4.47956       -6.49768        3.56483
H         -2.74262       -6.21719        3.44048
H         -2.10805       -5.50022       -1.46453
H         -3.09293       -4.36416       -0.56426
H         -4.04698       -6.83355       -2.07839
H         -4.39407       -5.14755       -2.40605
H         -5.10639       -5.91499       -0.98508
H         -4.33424       -8.41450       -0.39726
H         -1.06721      -11.25634       -0.32472
H          0.42484       -9.54547        0.55667
H         -5.69152      -10.01662       -1.19934
H         -3.37952      -17.24000       -2.85238
H         -4.42794      -16.60266       -4.10515
H         -5.09087      -17.10606       -2.48406
H         -9.81818      -12.14985       -2.61148
H         -8.75293      -11.22805       -3.73152
H         -9.66022      -10.44228       -2.42087
H         -6.47510      -16.48041       -4.19864
H        -12.50396      -17.16459       -7.27649
H        -15.33565      -17.33207       -1.94689
H        -17.59873      -16.30887       -6.28517
H        -16.99935      -17.65901       -0.64627
