89

C          1.96278       -0.81145        2.85473
C          2.36140       -0.75240        4.22613
C          2.50382        0.61196        4.81478
O          2.74131        1.57563        4.09881
O          2.30654        0.75254        6.13624
C          2.67206       -1.93859        4.91840
C          3.16078       -1.95567        6.26136
N          3.47989       -1.93578        7.36777
C          2.54602       -3.17655        4.29292
C          2.15113       -3.19046        2.96676
C          1.85565       -2.04564        2.21922
C          1.55285       -2.49840        0.82414
C          0.78142       -1.85830       -0.08522
C          0.19753       -0.58937        0.18434
N         -0.28305        0.43489        0.43983
C          0.42409       -2.45317       -1.33025
N          0.14701       -2.95138       -2.34021
C          2.07463       -3.88472        0.72509
C          2.08675       -4.39178        2.13429
O          1.99448       -5.51693        2.56626
C          2.66293       -4.48738       -0.32509
C          3.42021       -5.69985       -0.24982
C          4.24205       -6.19144        0.74623
C          4.78089       -7.50045        0.48965
C          5.66595       -8.19573        1.47659
C          4.33716       -7.98767       -0.73501
S          3.51231       -6.74254       -1.60810
C          4.47645       -9.30918       -1.32939
C          4.46558       -9.62767       -2.67483
C          4.53221      -11.03526       -2.94816
C          4.52183      -11.60088       -4.33157
C          4.59080      -11.77591       -1.77434
S          4.56962      -10.74309       -0.39499
C          4.64284      -13.19565       -1.58623
C          3.48078      -13.84667       -1.38397
C          3.43420      -15.26848       -1.16686
C          4.64063      -16.10561       -1.21855
C          5.87415      -15.63587       -1.40554
S          6.22946      -13.94511       -1.63686
C          4.22063      -17.42948       -0.97938
C          2.86394      -17.44997       -0.75695
C          2.35874      -18.74053       -0.53147
C          3.39209      -19.66869       -0.58918
S          4.93379      -18.93861       -0.91631
C          2.38414      -16.09033       -0.86952
C          1.01129      -15.70338       -0.64804
C          0.26344      -15.05598       -1.55396
C         -1.11720      -14.69983       -1.32023
C         -1.63963      -13.46691       -1.41887
C         -3.02665      -12.99861       -1.19542
C         -4.16667      -13.72425       -1.33115
C         -5.47100      -13.16458       -1.18828
N         -6.52724      -12.71971       -1.07087
C         -4.16386      -15.10379       -1.69316
N         -4.16814      -16.22703       -1.98555
C         -2.94608      -11.51932       -0.98141
C         -1.64756      -11.09758       -1.27629
C         -0.79104      -12.24140       -1.61592
O          0.36921      -12.16238       -1.96318
C         -1.22443       -9.77304       -1.21991
C         -2.17202       -8.79554       -0.84461
C         -3.47218       -9.21070       -0.51957
C         -3.87468      -10.57051       -0.56533
S         -4.46230       -7.86396       -0.07797
C         -3.20108       -6.77155       -0.33170
C         -2.03430       -7.37005       -0.72455
Br        -3.38143       -4.92183       -0.09416
H          1.78202        0.12075        2.31785
H          2.12631       -0.00476        6.72301
H          2.79181       -4.10783        4.79695
H          2.65645       -4.00425       -1.29965
H          4.43156       -5.65832        1.66988
H          6.01479       -7.49972        2.24842
H          6.55365       -8.60145        0.98191
H          5.13084       -9.00257        1.98611
H          4.39331       -8.88084       -3.45619
H          4.34265      -10.81503       -5.07375
H          3.73159      -12.34974       -4.44396
H          5.48591      -12.06468       -4.56120
H          2.54172      -13.30261       -1.38103
H          6.72443      -16.31044       -1.39960
H          1.32473      -19.00612       -0.35391
H          3.33037      -20.74096       -0.46418
H          0.60031      -15.96585        0.32476
H          0.67830      -14.78779       -2.52483
H         -1.72666      -15.55550       -1.04084
H         -0.19725       -9.50685       -1.45792
H         -4.88939      -10.81641       -0.27560
H         -1.11664       -6.83112       -0.92917
