106

C          2.06404       -0.18225       -0.01966
C          2.09339        1.19935        0.31058
C          1.19361        2.06527       -0.53246
O          0.50792        1.55000       -1.40608
O          1.10922        3.38812       -0.31839
C          2.91006        1.61999        1.38718
C          3.03707        2.99381        1.74234
N          3.04458        4.13954        1.91763
C          3.61825        0.68403        2.16475
C          3.52753       -0.65581        1.82547
C          2.80482       -1.10087        0.71408
C          2.98875       -2.57125        0.61041
C          3.04525       -3.26642       -0.55229
C          2.73604       -2.67993       -1.81708
N          2.51275       -2.18545       -2.84284
C          3.57385       -4.59210       -0.61674
N          4.05259       -5.64770       -0.69786
C          3.43990       -3.02368        1.94201
C          4.03476       -1.80971        2.60290
O          4.70010       -1.75066        3.61429
C          3.14830       -4.08879        2.71857
C          2.17804       -5.12851        2.44685
C          1.81243       -6.19194        3.17916
C          0.75675       -6.87305        2.44721
C          0.59426       -6.01337        1.28429
N          1.42532       -5.00184        1.28642
O         -0.27745       -6.14709        0.28919
C         -1.51686       -6.77811        0.57794
C          0.46053       -7.97313        3.15804
N          1.19285       -8.07181        4.34234
C          1.97140       -7.02302        4.35528
O          2.86074       -6.71187        5.29999
C          3.14757       -7.75963        6.24219
C         -0.42759       -9.09968        2.90718
C          0.10862      -10.32249        2.69117
C         -0.69518      -11.51071        2.54647
C         -2.15484      -11.48232        2.73081
C         -2.86772      -10.37610        2.93162
S         -2.15310       -8.80385        3.12394
C         -2.60220      -12.81528        2.63941
C         -1.53342      -13.63695        2.38844
C         -1.86851      -14.99962        2.34821
C         -3.22912      -15.15223        2.57361
S         -4.04281      -13.63799        2.83061
C         -0.35188      -12.81000        2.29116
C          0.94390      -13.38761        2.03090
C          1.85989      -12.89327        1.18900
C          3.12159      -13.50830        0.87617
C          3.76436      -14.56027        1.41538
C          4.99756      -14.66755        0.67361
C          4.93974      -13.56846       -0.25896
N          3.83074      -12.88510       -0.16015
O          5.95930      -13.35962       -1.10013
C          5.81808      -12.18255       -1.90600
C          5.66426      -15.70616        1.17025
N          5.01514      -16.33000        2.21091
C          3.89519      -15.66510        2.36144
O          2.96867      -15.94672        3.28227
C          3.29599      -17.10120        4.07968
C          6.94214      -16.23446        0.83777
C          7.34423      -16.69466       -0.34523
C          8.81893      -16.82067       -0.55073
O          9.68516      -16.99958        0.27573
C          9.01177      -16.56129       -1.98672
C          7.76985      -16.44365       -2.63474
C          7.73406      -16.03811       -3.95841
C          8.94421      -15.78305       -4.63329
C         10.18420      -15.95948       -3.96976
C         10.21724      -16.35174       -2.62514
C         11.44395      -15.72030       -4.60839
N         12.51274      -15.51832       -5.03436
C          8.90253      -15.38560       -6.06489
O          9.76381      -15.71230       -6.85838
O          7.83565      -14.63927       -6.41582
C          6.70807      -16.79766       -1.66145
C          5.51451      -17.36765       -1.97564
C          4.68676      -17.98756       -0.99311
N          3.98963      -18.52584       -0.23922
C          5.06011      -17.49804       -3.32114
N          4.72083      -17.57468       -4.42920
H          1.42605       -0.51982       -0.83656
H          1.62734        3.88728        0.33988
H          4.20376        0.98741        3.03124
H          3.58033       -4.12694        3.72064
H         -1.36467       -7.85604        0.59635
H         -2.22390       -6.55216       -0.22214
H         -1.92933       -6.38455        1.51277
H          2.49389       -8.63575        6.16237
H          3.06503       -7.36817        7.25938
H          4.17522       -8.08578        6.06515
H          1.18796      -10.45126        2.69815
H         -3.94956      -10.42876        3.00374
H         -1.18543      -15.82404        2.18812
H         -3.79389      -16.07375        2.61407
H          1.11802      -14.34437        2.51451
H          1.65646      -11.96738        0.64839
H          6.77932      -11.97875       -2.38558
H          5.54862      -11.31004       -1.30038
H          5.06914      -12.35832       -2.68411
H          2.70905      -17.07686        5.00038
H          4.35443      -17.11931        4.37115
H          3.05068      -18.01232        3.52326
H          7.65094      -16.20552        1.67441
H          6.78891      -15.93062       -4.48009
H         11.15370      -16.46509       -2.07656
H          7.22699      -14.33010       -5.72228
