98

C         10.59669      -11.07303       -3.89836
C         10.93226      -12.44246       -4.02039
C         12.08728      -12.98192       -3.24938
O         12.13133      -14.12761       -2.84341
O         13.09708      -12.10980       -3.05520
C         10.13629      -13.30156       -4.81918
C         10.35319      -14.72122       -4.90269
N         10.44499      -15.87061       -5.02465
C          9.05665      -12.77955       -5.55014
C          8.77460      -11.42937       -5.42962
C          9.51364      -10.56660       -4.60244
C          8.85389       -9.23338       -4.62122
C          9.36854       -8.03440       -4.25481
C         10.63406       -7.91378       -3.61734
N         11.66325       -7.87494       -3.08261
C          8.67412       -6.81131       -4.49994
N          8.12338       -5.81356       -4.71818
C          7.52987       -9.44615       -5.23030
C          7.59526      -10.73555       -5.98810
O          6.80707      -11.18132       -6.79216
C          6.29051       -9.07262       -4.86097
C          5.98711       -8.45728       -3.60635
C          4.94981       -7.59312       -3.27959
C          4.89118       -7.31661       -1.88374
C          5.91831       -7.92051       -1.19779
S          6.83487       -8.93312       -2.17025
C          6.06466       -7.75891        0.20343
C          5.02941       -7.18305        0.89481
C          3.79090       -6.75668        0.15358
O          3.96247       -6.51906       -1.27933
C          5.31128       -7.15825        2.29365
C          6.56537       -7.67707        2.59253
S          7.37668       -8.18948        1.16640
C          7.18579       -7.82372        3.88671
C          8.53905       -7.81635        4.19137
C          8.77785       -7.95481        5.58296
C          7.60805       -8.11825        6.28885
S          6.23667       -8.06650        5.29928
C          7.63465       -8.29541        7.69778
C          8.83031       -8.14288        8.35749
C         10.06228       -7.75729        7.58931
O         10.01907       -7.98376        6.14999
C          8.67398       -8.36107        9.76254
C          7.36796       -8.68135       10.10236
S          6.35703       -8.70566        8.70661
C          6.84039       -8.96527       11.41559
C          7.50142       -9.51078       12.50641
C          6.65735       -9.61546       13.65025
C          5.39277       -9.14293       13.39161
S          5.20256       -8.61277       11.80338
C          4.38971       -9.13598       14.39216
C          4.71253       -9.55793       15.65516
C          6.13355       -9.93989       15.97581
O          7.03992      -10.14868       14.84696
C          3.56019       -9.51878       16.50857
C          2.41222       -9.08363       15.85257
S          2.80694       -8.59916       14.24099
C          1.10020       -8.86311       16.37450
C         -0.04343       -8.99806       15.68126
C         -1.23302       -8.22161       16.16499
O         -1.46424       -7.82262       17.28529
C         -2.02966       -7.93989       14.95151
C         -1.46700       -8.58171       13.83759
C         -1.98979       -8.32574       12.57728
C         -3.12925       -7.49612       12.44873
C         -3.70477       -6.88990       13.59315
C         -3.13819       -7.10944       14.86061
C         -4.88610       -6.06035       13.53066
N         -5.83220       -5.40022       13.56993
C         -3.68554       -7.23384       11.09295
O         -4.22948       -6.18524       10.79977
O         -3.55067       -8.24837       10.21463
C         -0.36725       -9.45646       14.32335
C          0.03653      -10.61251       13.73699
C          0.79059      -11.59128       14.44920
N          1.34687      -12.42156       15.03889
C         -0.36420      -10.98141       12.42065
N         -0.71911      -11.22156       11.34173
H         11.14629      -10.44639       -3.20436
H         13.03467      -11.21028       -3.42342
H          8.41919      -13.41858       -6.15996
H          5.43086       -9.43671       -5.42519
H          4.24452       -7.20268       -4.00349
H          3.39892       -5.82903        0.58244
H          3.02038       -7.52983        0.26310
H          4.62551       -6.78263        3.04383
H          9.32536       -7.69342        3.45756
H         10.92182       -8.32074        7.96822
H         10.27011       -6.69151        7.74207
H          9.47512       -8.27140       10.48675
H          8.53695       -9.82608       12.48845
H          6.14553      -10.86574       16.56078
H          6.58347       -9.15280       16.59306
H          3.57240       -9.79888       17.55623
H          1.06122       -8.42841       17.37392
H         -1.51177       -8.73053       11.69100
H         -3.54091       -6.64192       15.75694
H         -3.13528       -9.08300       10.50003
