103

C          6.47885       -0.93074        3.08581
C          6.36953        0.48444        3.01542
C          7.53737        1.18135        2.38868
O          8.64342        0.66414        2.38632
O          7.30203        2.33349        1.73694
C          5.23018        1.12543        3.54261
C          5.12420        2.55210        3.60576
N          5.05669        3.70577        3.55297
C          4.14816        0.37465        4.01812
C          4.26058       -1.00592        4.01559
C          5.43515       -1.66495        3.62862
C          5.23770       -3.11343        3.90628
C          6.19150       -3.91416        4.43888
C          7.54079       -3.47925        4.57377
N          8.63792       -3.11763        4.68670
C          5.91567       -5.15543        5.08422
N          5.78780       -6.16126        5.63902
C          3.78701       -3.31618        3.93044
C          3.19330       -1.98583        4.30269
O          2.06519       -1.73493        4.66518
C          2.97395       -4.23270        3.38214
C          3.39735       -5.34800        2.51891
C          3.58166       -6.65680        2.94592
C          4.07070       -7.69912        2.07271
N          4.29515       -8.90595        2.62876
C          4.02785       -9.12686        3.94201
C          3.54462       -8.13095        4.74452
N          3.30322       -6.89448        4.24263
C          3.32106       -8.30545        6.14806
N          3.15215       -8.47555        7.28476
C          4.25891      -10.45948        4.39313
N          4.42569      -11.55707        4.74318
C          4.31835       -7.50611        0.67419
C          3.99455       -6.19678        0.19016
C          3.56718       -5.09577        1.13556
N          3.39294       -3.90691        0.53198
S          3.62364       -4.14930       -1.08472
N          3.98242       -5.75901       -1.07887
C          4.82447       -8.57964       -0.26365
S          4.45105      -10.22500        0.07258
C          5.21115      -10.90201       -1.31125
C          5.65311       -9.84522       -2.11207
C          5.61308       -8.54750       -1.41567
C          6.32830       -7.34388       -1.99547
C          7.20894       -7.68103       -3.19749
C          6.40051       -8.54957       -4.16526
C          7.08376       -8.71930       -5.50272
O          8.15364       -8.20362       -5.80732
C          6.17924       -9.92674       -3.53051
C          5.26268      -12.40930       -1.44501
C          4.27585      -13.31416       -0.93969
C          4.39537      -14.75840       -1.03089
N          3.42495      -15.56211       -0.54099
C          2.34514      -15.00209        0.06326
C          2.21692      -13.64280        0.15419
N          3.16136      -12.81404       -0.36164
C          1.09062      -12.99741        0.75983
N          0.16871      -12.47941        1.23933
C          1.35975      -15.90968        0.57020
N          0.54200      -16.62291        0.98245
C          5.49160      -15.40027       -1.63281
C          6.47539      -14.54905       -2.19645
C          6.38030      -13.04289       -2.07278
N          7.46451      -12.45504       -2.60125
S          8.39216      -13.59832       -3.33302
N          7.54759      -14.94541       -2.90720
C          5.55154      -16.87262       -1.84689
C          6.59349      -17.72102       -1.90356
C          6.39330      -19.04304       -2.60300
O          5.36271      -19.65842       -2.76622
C          7.71849      -19.38747       -3.16598
C          8.66309      -18.42831       -2.78265
C          9.91474      -18.41945       -3.38221
C         10.26860      -19.46689       -4.25646
C          9.32938      -20.48781       -4.55566
C          8.02691      -20.42756       -4.02457
C          9.64891      -21.62039       -5.38189
N          9.83656      -22.58408       -5.99911
C         11.60007      -19.43740       -4.92452
O         11.78136      -19.91451       -6.02943
O         12.57732      -18.80867       -4.24023
C          8.04105      -17.57663       -1.73920
C          8.71689      -17.09369       -0.66751
C          8.05309      -16.65929        0.51379
N          7.54743      -16.34448        1.50756
C         10.14394      -17.14906       -0.59302
N         11.29952      -17.22792       -0.61257
H          7.37307       -1.42060        2.69920
H          6.42082        2.74875        1.70660
H          3.22828        0.84535        4.37139
H          1.89308       -4.07408        3.40526
H          6.93001       -6.85510       -1.22074
H          5.60139       -6.62809       -2.37331
H          8.11824       -8.20513       -2.87404
H          7.53706       -6.75176       -3.67873
H          5.43502       -8.06919       -4.37204
H          6.52894       -9.32685       -6.23918
H          7.14241      -10.43382       -3.55293
H          5.47730      -10.50728       -4.14177
H          4.56794      -17.28546       -2.09660
H         10.59550      -17.59144       -3.20938
H          7.27178      -21.16985       -4.27832
H         12.42633      -18.55470       -3.31049
