112

C          7.48109       -9.92639        2.17224
C          7.40197      -11.19630        2.73308
C          8.66857      -11.92619        2.94193
O          8.82530      -13.12627        2.89117
O          9.68011      -11.07538        3.18609
C          6.14268      -11.77813        2.99308
C          6.00452      -13.12622        3.41340
N          5.79779      -14.21269        3.73518
C          4.95796      -11.05224        2.83104
C          5.06637       -9.80400        2.29219
C          6.30347       -9.30570        1.83672
C          6.07782       -8.16003        0.98184
C          6.98870       -7.52123       -0.10337
C          8.30649       -8.26275       -0.19545
N          9.37289       -8.69668       -0.33806
C          6.38521       -5.88078       -1.25360
N          5.97726       -4.92926       -1.82439
C          4.42467       -7.79803        1.31013
C          3.91545       -8.90661        2.10797
O          2.80605       -8.98938        2.59057
C          3.61561       -6.78431        0.83065
C          2.21457       -6.58328        0.67243
C          1.61594       -5.64740        1.47932
C          2.19721       -4.56296        2.28439
O          3.36702       -4.23351        2.24737
N          1.14292       -3.93119        2.87919
C         -0.04824       -4.42719        2.40390
O         -1.19109       -4.05346        2.60240
C          0.25441       -5.52972        1.50180
C         -0.55513       -6.33494        0.71553
C          0.08342       -7.11117       -0.25278
C          1.45822       -7.14067       -0.35653
C          1.85930       -7.61862       -1.70366
O          2.76437       -7.16713       -2.38545
S          0.60359       -8.63289       -2.37667
C         -0.55370       -7.97397       -1.24313
O         -1.74162       -8.23157       -1.23824
C          1.28204       -2.69455        3.46278
C          0.98082       -1.56624        2.80532
C          1.02228       -0.24302        3.38683
C          2.15612        0.22906        3.93325
C          2.23145        1.54968        4.48899
C          1.05005        2.41350        4.61404
C         -0.15784        2.10713        4.14448
S         -0.49046        0.64291        3.26869
C          1.46843        3.56536        5.30744
C          2.80947        3.46866        5.58892
C          3.31137        4.57396        6.29377
C          2.29063        5.48811        6.51936
S          0.76429        4.96970        5.87139
C          3.27863        2.20574        5.06546
C          4.60889        1.69756        5.29737
C          5.39624        1.10144        4.39194
C          6.72973        0.52573        4.64638
C          7.07323       -0.64074        3.97644
C          6.30021       -1.47648        3.06428
O          5.11582       -1.36035        2.81668
N          7.17214       -2.43504        2.63118
C          8.36610       -2.42867        3.27559
O          9.29823       -3.20673        3.21972
C          8.32991       -1.24652        4.08714
C          9.36090       -0.74926        4.81788
C          9.05277        0.42617        5.46434
C          7.78174        1.04652        5.42238
C          7.79915        2.23913        6.28497
O          6.83287        2.87320        6.65499
S          9.41637        2.62934        6.84304
C         10.05954        1.15266        6.21155
O         11.20706        0.76462        6.33314
C          6.73432       -3.51303        1.98863
C          6.43588       -4.61457        2.66214
C          5.83807       -5.61801        1.87953
C          6.10862       -5.93907        0.58208
C          5.27602       -7.25889       -0.88051
O          4.42014       -8.13059       -0.96382
C          6.69303       -7.59425       -2.15462
C          8.11214       -6.54382       -1.86214
C          8.53551       -6.10747       -3.08414
C          8.00584       -6.87997       -4.25280
C          7.03919       -8.00013       -4.29504
C          6.29777       -8.33953       -3.20631
C          6.73515       -8.80898       -5.44244
N          6.42495       -9.61193       -6.21993
C          8.41593       -6.42228       -5.58593
O          7.66429       -6.34262       -6.53613
O          9.73244       -6.17120       -5.59844
C          7.94920       -5.63818       -0.09938
C          9.05111       -5.47305        0.68022
C          9.06884       -5.89734        2.06723
N          9.03399       -6.41111        3.11300
C         10.29697       -5.21680        0.05098
N         11.27820       -4.98946       -0.52442
H          8.45004       -9.47896        1.97913
H         10.47683      -11.63917        3.28078
H          3.97180      -11.45451        3.04946
H          3.96514       -5.91632        0.25691
H         -1.63257       -6.30748        0.80060
H          1.66794       -2.69809        4.47800
H          0.66592       -1.60333        1.76408
H          3.04614       -0.39003        3.96472
H         -0.99184        2.78728        4.27988
H          4.33283        4.71173        6.62680
H          2.35031        6.43659        7.03520
H          4.93389        1.83503        6.32027
H          4.99907        0.95896        3.38252
H         10.33154       -1.23336        4.85027
H          6.59056       -3.38784        0.92421
H          6.40936       -4.69093        3.75162
H          5.02943       -6.00502        2.50210
H          8.99784       -5.13454       -3.24255
H          5.45580       -9.01902       -3.15597
H         10.19993       -6.41474       -4.77548
