124

C          1.62714       -1.79423        0.87788
O          2.64539       -1.12975        0.81981
C          0.49701       -1.63470        1.74251
C         -0.56786       -2.43859        1.43320
C         -1.64433       -2.24544        2.32768
C         -1.32798       -1.28123        3.27525
S          0.24635       -0.61229        3.03737
C         -0.25677       -3.21613        0.24998
C         -1.14454       -3.91431       -0.49590
C         -2.51093       -4.04579       -0.11810
N         -3.63104       -4.16171        0.18747
C         -0.80344       -4.51514       -1.73998
N         -0.52735       -4.99381       -2.75990
C          1.20705       -2.95734       -0.02575
C          2.06834       -3.67490       -0.76941
C          3.47395       -3.44575       -0.80280
C          4.22243       -2.67989       -1.69261
C          5.58802       -2.81784       -1.41248
C          5.87981       -3.59348       -0.31650
S          4.49426       -4.26456        0.35460
C          7.26622       -3.68523        0.02865
C          8.14316       -2.93174       -0.72303
Si         7.17753       -2.08101       -2.08090
C          7.81282       -2.76310       -3.72833
C          7.21314       -3.89709       -4.31031
C          7.72149       -4.45454       -5.48718
C          8.83155       -3.88860       -6.10770
C          9.44604       -2.77355       -5.54438
C          8.95148       -2.22211       -4.35833
C          6.95876       -0.23041       -2.25121
C          6.79754        0.39998       -3.50253
C          6.47743        1.75965       -3.59746
C          6.30251        2.51975       -2.44610
C          6.46732        1.92609       -1.19876
C          6.79537        0.56845       -1.10043
C          9.49883       -3.21261       -0.46769
C          9.63456       -4.18624        0.52792
S          8.05953       -4.69717        1.09581
C         10.83586       -4.86201        0.93364
C         11.13895       -5.31523        2.16276
C         12.31453       -6.10984        2.46253
C         12.39875       -6.50639        3.74269
C         11.31021       -6.03224        4.57414
S         10.21641       -5.04392        3.61255
C         11.10420       -6.28233        5.88056
C         11.92028       -7.07136        6.78184
C         11.36642       -7.26220        7.99157
C         10.04728       -6.67719        8.12232
S          9.71707       -5.65420        6.74993
C          9.20317       -6.90679        9.14362
C          7.84308       -6.45924        9.17848
C          6.92980       -6.29967        8.13476
C          5.71121       -5.81889        8.60361
C          5.62594       -5.73265        9.97135
S          7.08647       -6.10509       10.71358
C          4.35023       -5.32694       10.47702
C          3.37318       -5.08430        9.53438
Si         4.08720       -5.37416        7.83475
C          3.92579       -3.72537        6.92632
C          4.97265       -2.78472        6.95769
C          4.81284       -1.51493        6.39770
C          3.60790       -1.16067        5.79951
C          2.56166       -2.07626        5.76120
C          2.71514       -3.34886        6.31432
C          3.46273       -6.65463        6.63346
C          2.15952       -7.17884        6.69179
C          1.72016       -8.11872        5.74964
C          2.57477       -8.56558        4.74412
C          3.87729       -8.08562        4.68516
C          4.31531       -7.14111        5.61731
C          2.25161       -4.40777       10.03661
C          2.33456       -4.27380       11.41991
S          3.82532       -4.97625       12.02640
C          1.54206       -3.56320       12.36261
C          0.23428       -3.27409       12.32937
C         -0.17509       -2.17085       13.31417
O          0.50993       -1.67913       14.19431
C         -1.50630       -1.85035       12.91351
C         -1.96396       -2.59414       11.85886
C         -0.94820       -3.56071       11.45969
C         -1.18047       -4.59657       10.62193
C         -2.27718       -4.58219        9.70707
N         -3.13667       -4.54332        8.93051
C         -0.40899       -5.78933       10.61423
N          0.15149       -6.80406       10.58910
C         -3.32752       -2.32568       11.59794
C         -3.81463       -1.35379       12.46130
S         -2.61163       -0.77975       13.55910
H         -2.60691       -2.74298        2.32085
H         -1.94809       -0.91853        4.08507
H          1.74999       -4.54300       -1.33526
H          3.79228       -2.07323       -2.47957
H          6.35517       -4.38075       -3.84395
H          7.25454       -5.33927       -5.91324
H          9.22298       -4.32286       -7.02408
H         10.31900       -2.33761       -6.02413
H          9.47468       -1.36656       -3.93206
H          6.88386       -0.15974       -4.43319
H          6.34114        2.21847       -4.57392
H          6.02523        3.56822       -2.51977
H          6.31529        2.51307       -0.29597
H          6.87490        0.13675       -0.10193
H         10.34127       -2.81395       -1.02138
H         11.55193       -5.03997        0.13417
H         13.03653       -6.38491        1.70572
H         13.19589       -7.12977        4.12118
H         12.88501       -7.46847        6.50260
H         11.83047       -7.83015        8.78622
H          9.53995       -7.51028        9.98320
H          7.15488       -6.51004        7.09731
H          5.92158       -3.01642        7.44239
H          5.62797       -0.79647        6.44163
H          3.48247       -0.17009        5.36796
H          1.61499       -1.79671        5.31180
H          1.86477       -4.02849        6.27477
H          1.46419       -6.87054        7.47128
H          0.70594       -8.50774        5.80316
H          2.23016       -9.29054        4.01167
H          4.55683       -8.43936        3.91295
H          5.34331       -6.79052        5.52991
H          1.47296       -3.97289        9.42465
H          2.12383       -3.13372       13.18360
H         -3.96984       -2.81421       10.87591
H         -4.82383       -0.96779       12.52219
