100

C          4.57815        2.06124       -1.00452
O          5.78081        2.03776       -1.18932
C          3.72120        3.18269       -0.76641
C          2.38863        2.86996       -0.71493
C          1.60114        3.99089       -0.37953
C          2.39842        5.11640       -0.21704
S          4.07514        4.78888       -0.48419
C          2.21143        1.45881       -0.99527
C          1.05156        0.83996       -1.30905
C         -0.18488        1.53668       -1.34194
N         -1.19263        2.11457       -1.37084
C          0.99815       -0.53115       -1.69393
N          0.96625       -1.65004       -2.00003
C          3.60347        0.88008       -0.97586
C          3.97756       -0.39044       -0.74211
C          5.31846       -0.76992       -0.50537
S          6.41358       -1.30527       -1.71295
C          7.69779       -1.60885       -0.57560
C          7.21177       -1.28265        0.65265
C          5.89889       -0.82352        0.73072
S          5.26179       -0.41352        2.37032
C          6.84729       -0.89065        2.95602
C          7.15512       -0.85430        4.37528
O          8.03391       -1.52030        4.90916
O          6.42803        0.11035        5.00231
C          6.95969        0.57782        6.24760
C          7.05026        2.08855        6.14658
C          7.75630       -1.29323        1.96331
C          8.94651       -2.11332       -1.03692
C          9.69810       -2.93454       -0.28542
C         10.97396       -3.46853       -0.72041
C         11.57858       -4.57394       -0.25179
C         12.82974       -5.07971       -0.76601
C         13.09245       -6.34055       -0.39450
C         12.07209       -6.91818        0.45115
S         10.92696       -5.66476        0.94832
C         11.89023       -8.23628        0.69876
C         12.61526       -9.33637        0.07468
C         11.88574      -10.45902        0.01709
C         10.56252      -10.30027        0.59941
S         10.56020       -8.88501        1.62293
C          9.51039      -11.08242        0.30356
C          8.15595      -10.86326        0.69465
S          7.38624       -9.33412        0.91423
C          5.82666       -9.99708        1.25548
C          5.93661      -11.32906        1.00404
C          7.21264      -11.85124        0.77520
S          7.34147      -13.64573        0.59157
C          5.58880      -13.63342        0.60370
C          4.89733      -14.88858        0.37250
O          5.40902      -15.99569        0.26813
O          3.55497      -14.65054        0.34047
C          2.71235      -15.78027        0.57563
C          2.56059      -16.65273       -0.65342
C          5.00238      -12.38576        0.87183
C          4.78863       -9.11383        1.67919
C          3.57945       -9.54765        2.06528
C          2.54210       -8.67349        2.55606
C          1.94381       -8.71290        3.75784
C          1.16129       -7.46943        4.16769
O          0.66988       -6.63747        3.42567
C          1.21048       -7.52610        5.59718
C          1.80615       -8.66032        6.08847
C          2.12278       -9.54871        4.98488
C          2.28593      -10.88838        5.08480
C          2.40957      -11.53996        6.34605
N          2.51644      -12.07569        7.36974
C          2.19380      -11.76157        3.96793
N          2.07250      -12.49818        3.07568
C          1.89351       -8.63692        7.49661
C          1.31793       -7.47844        8.00166
S          0.70147       -6.44380        6.76024
H          0.52751        4.02094       -0.23733
H          2.08747        6.11765        0.05155
H          3.25167       -1.18184       -0.58940
H          7.95505        0.17476        6.46283
H          6.28081        0.28210        7.05283
H          6.05108        2.52643        6.05326
H          7.60802        2.38001        5.24929
H          7.54318        2.51276        7.02462
H          8.77262       -1.57687        2.21323
H          9.25711       -1.85677       -2.04803
H          9.35301       -3.25140        0.69592
H         11.45955       -2.91759       -1.52403
H         13.46801       -4.49938       -1.41748
H         13.96830       -6.88502       -0.71499
H         13.59433       -9.23237       -0.36125
H         12.20335      -11.36596       -0.48510
H          9.68393      -11.92978       -0.35831
H          1.73365      -15.37977        0.86036
H          3.08782      -16.34935        1.43317
H          2.24102      -16.06073       -1.51619
H          1.82575      -17.44056       -0.46612
H          3.50702      -17.12927       -0.92423
H          3.92678      -12.27202        0.90515
H          5.02423       -8.05204        1.75002
H          3.32367      -10.58998        1.98952
H          2.31647       -7.83876        1.88688
H          2.33077       -9.39046        8.14115
H          1.22415       -7.18214        9.03829
