56

C          1.03576       -0.56519        0.33394
C          1.57786        0.71844        0.62855
C          2.51146        0.66718        1.63658
S          3.41965        2.03085        2.26236
C          2.30784        2.57090        3.58092
S          2.72594       -0.91883        2.22367
C          1.57031       -1.56766        1.12379
C          1.29854       -2.96228        1.14850
C          0.88598       -3.61161        0.04727
C          0.59085       -5.04290        0.03490
C          0.09290       -5.73287        1.12115
N         -0.20502       -7.04635        1.11688
C         -0.00620       -7.70081       -0.04208
N          0.45347       -7.12920       -1.17023
C          0.73773       -5.80987       -1.10544
C         -0.31674       -9.12109       -0.06625
C         -0.79959       -9.81240        1.02930
N         -1.09755      -11.13247        1.04099
C         -0.90116      -11.80009       -0.11030
N         -0.43675      -11.23639       -1.23955
C         -0.15690       -9.91365       -1.18691
C         -1.20975      -13.22261       -0.13759
C         -1.69110      -13.92071        0.95384
N         -1.98755      -15.24161        0.95579
C         -1.77355      -15.90215       -0.19688
N         -1.32547      -15.33414       -1.32753
C         -1.05164      -14.00992       -1.26376
C         -2.13120      -17.32112       -0.21033
C         -3.18337      -17.88035        0.60180
C         -3.33095      -19.23216        0.43371
S         -4.49519      -20.25372        1.25610
C         -5.86420      -20.16692        0.07972
S         -2.21128      -19.84821       -0.67557
C         -1.47738      -18.29997       -0.96860
C         -0.35894      -18.17696       -1.86268
C          0.22926      -19.19904       -2.49981
H          0.27932       -0.74016       -0.42122
H          1.29256        1.62941        0.11744
H          2.73996        3.44444        4.07637
H          2.17615        1.78025        4.32466
H          1.33218        2.85092        3.17380
H          1.45902       -3.48929        2.08659
H          0.77669       -3.09531       -0.90360
H         -0.09966       -5.23870        2.07041
H          1.10788       -5.38221       -2.03390
H         -0.97210       -9.30924        1.98006
H          0.21718       -9.49760       -2.11977
H         -1.86546      -13.42404        1.90675
H         -0.68454      -13.58652       -2.19674
H         -3.79556      -17.29245        1.27607
H         -6.68806      -20.78686        0.44308
H         -5.55861      -20.53764       -0.90268
H         -6.21992      -19.13749       -0.01677
H          0.05395      -17.18618       -2.03579
H         -0.08769      -20.23106       -2.40274
H          1.07565      -19.01717       -3.15447
