122

C          4.40063      -15.02817       -5.14568
C          5.41843      -16.00180       -4.91165
C          6.08553      -15.77806       -3.72957
S          7.39469      -16.75940       -3.09346
C          8.70566      -15.51755       -2.98820
S          5.47265      -14.42014       -2.90605
C          4.32029      -14.08752       -4.13406
C          3.49229      -12.94647       -3.97080
C          2.22557      -12.90395       -4.45785
C          1.42376      -11.75373       -4.28010
C          1.75700      -10.42112       -4.15040
C          0.63987       -9.50072       -4.21017
C          0.56387       -8.08563       -4.30642
C          1.77551       -7.22114       -4.18143
C          1.88973       -5.96999       -3.58258
C          3.21129       -5.43991       -3.59277
C          4.11701       -6.33842       -4.10334
S          3.30893       -7.65180       -4.83854
C          5.60675       -6.27789       -4.12026
Cl         3.57478       -3.89262       -2.96008
C         -0.69037       -7.47851       -4.55789
C         -1.89301       -8.18763       -4.42021
C         -1.81266       -9.54904       -4.02126
C         -0.56378      -10.21549       -4.11762
S         -0.25035      -11.91773       -4.17649
C         -2.99846      -10.29221       -3.49266
C         -3.34760      -11.63205       -3.60583
C         -4.39588      -12.04621       -2.74038
C         -4.87961      -11.00880       -1.98173
S         -4.09956       -9.53485       -2.38685
C         -5.89497      -11.05679       -0.88797
Cl        -4.88962      -13.68425       -2.65374
C         -3.01908       -7.34327       -4.77697
C         -2.66070       -6.09880       -5.25595
S         -0.99315       -5.85987       -5.08170
C         -3.52034       -5.08260       -5.82020
C         -4.87484       -4.90103       -5.55290
C         -5.40313       -3.81062       -6.27790
C         -4.45724       -3.25205       -7.10370
S         -2.95140       -3.93774       -7.00560
C         -5.05699       -2.21556       -7.84385
C         -6.38552       -2.11988       -7.48906
C         -6.67849       -3.10465       -6.45058
C         -7.81009       -3.29581       -5.73923
C         -7.70878       -4.23449       -4.54801
N         -7.62474       -5.01321       -3.55979
C         -9.01083       -2.57234       -5.95416
N         -9.98262       -1.97914       -6.14651
C         -7.02970       -1.09017       -8.20113
C         -6.14114       -0.44329       -9.06897
S         -4.54994       -1.13024       -8.99054
C         -6.43513        0.64770       -9.96738
C         -5.84328        0.95445      -11.17492
C         -6.57150        1.93750      -11.95131
C         -6.45663        2.36671      -13.30288
C         -5.33218        1.89171      -14.15787
C         -4.70174        0.65892      -14.24110
C         -3.69998        0.59294      -15.25749
C         -3.62056        1.75689      -15.98611
S         -4.52371        2.99569      -15.22822
C         -2.86969        2.04554      -17.24455
Cl        -2.79217       -0.83021      -15.54137
C         -7.48554        3.16575      -13.86301
C         -8.42917        3.80980      -13.04780
C         -8.38705        3.56696      -11.64924
C         -7.56606        2.52952      -11.15680
S         -7.64750        1.77237       -9.60440
C         -9.20558        4.37158      -10.69163
C         -8.87557        4.82024       -9.41535
C         -9.83686        5.71147       -8.85161
C        -10.86158        5.97626       -9.72921
S        -10.81980        4.87298      -11.03208
C        -11.92164        7.02417       -9.66760
Cl        -9.62776        6.42002       -7.30884
C         -9.27523        4.65273      -13.85493
C         -9.16740        4.45492      -15.20561
S         -7.82935        3.47788      -15.54372
C        -10.09141        5.03552      -16.25137
C         -9.64101        5.33361      -17.58534
C        -10.64375        5.81556      -18.39133
S        -10.46693        6.28926      -20.07592
C        -11.80879        7.49361      -20.25970
S        -12.11990        5.85719      -17.56676
C        -11.45202        5.31498      -16.07033
C        -12.31753        5.15848      -14.93402
C        -13.61920        5.48207      -14.90639
H          3.77654      -15.01337       -6.03345
H          5.65084      -16.81628       -5.58654
H          9.60790      -15.98116       -2.58202
H          8.42153      -14.69220       -2.32987
H          8.93142      -15.12402       -3.98313
H          3.88620      -12.11648       -3.40345
H          1.80566      -13.76068       -4.97718
H          2.79394      -10.12207       -4.14497
H          1.05671       -5.44042       -3.13710
H          5.98396       -5.52358       -3.42154
H          5.97895       -6.03530       -5.11929
H          6.03699       -7.23716       -3.80908
H         -2.82405      -12.34699       -4.22193
H         -6.56499      -11.91689       -0.99797
H         -6.51731      -10.15775       -0.86429
H         -5.38904      -11.15661        0.07893
H         -4.04489       -7.69218       -4.78513
H         -5.40632       -5.53748       -4.85793
H         -8.07439       -0.81533       -8.11154
H         -5.00197        0.38953      -11.55125
H         -4.96307       -0.19515      -13.63266
H         -2.49606        1.12676      -17.70932
H         -2.01563        2.70274      -17.05792
H         -3.52367        2.52546      -17.98276
H         -7.95075        4.57071       -8.91042
H        -12.14401        7.31890       -8.63796
H        -12.85619        6.69427      -10.13147
H        -11.57907        7.91946      -10.20186
H        -10.00021        5.33773      -13.45388
H         -8.61706        5.22648      -17.92528
H        -11.82437        7.87051      -21.28427
H        -11.65370        8.33581      -19.57864
H        -12.78431        7.03999      -20.06021
H        -11.91441        4.73997      -14.02097
H        -14.16437        5.88212      -15.75441
H        -14.19588        5.34032      -13.99778
