86

C          2.14020       -1.33967       -3.89355
C          2.25651       -0.12665       -4.63086
C          1.49747       -0.14313       -5.77732
S          1.35889        1.15183       -6.95246
C          3.08265        1.29640       -7.47446
S          0.63685       -1.60340       -5.94547
C          1.28569       -2.25490       -4.48605
C          0.89061       -3.56508       -4.08689
C          1.35690       -4.12932       -2.96218
C          0.96675       -5.43381       -2.54469
C          0.11136       -6.36946       -3.13426
C         -0.01404       -7.52634       -2.34061
C          0.73611       -7.43384       -1.19253
S          1.61401       -6.03813       -1.03796
C          0.52119       -8.58510       -0.41167
C         -0.36348       -9.41038       -1.06881
C         -0.73583       -8.79805       -2.34654
C         -1.54519       -9.28947       -3.30925
C         -1.80915       -8.56672       -4.50575
N         -2.02881       -7.97686       -5.47834
C         -2.17444      -10.55442       -3.17763
N         -2.69872      -11.58657       -3.07516
C         -0.65622      -10.55980       -0.30524
C          0.05617      -10.56031        0.89651
S          1.02207       -9.12454        1.07548
C          0.05788      -11.52415        1.94352
C          0.89778      -12.56998        1.97622
C          0.88098      -13.58595        3.00285
C          1.66374      -14.63893        2.72609
C          2.35081      -14.53543        1.44987
S          2.10917      -12.92786        0.77027
C          3.00420      -15.52421        0.81196
C          3.18347      -16.88031        1.28962
C          3.67513      -17.71919        0.36833
C          3.89453      -17.10301       -0.92058
S          3.69593      -15.36494       -0.80290
C          4.17501      -17.66545       -2.10637
C          4.22670      -19.06518       -2.36897
C          3.55322      -20.13387       -1.77105
C          3.87043      -21.35908       -2.38460
C          4.68394      -21.17962       -3.47802
S          5.18738      -19.61874       -3.72252
C          4.84709      -22.41940       -4.12879
C          4.16215      -23.38540       -3.42423
C          3.52309      -22.77161       -2.25879
C          2.81924      -23.36673       -1.27529
C          2.30994      -22.63077       -0.16507
N          1.90733      -22.02607        0.74084
C          2.58049      -24.77103       -1.27609
N          2.39118      -25.91260       -1.27632
C          4.27270      -24.64949       -4.03838
C          5.05641      -24.58114       -5.18699
S          5.55969      -22.95481       -5.53017
C          5.43663      -25.75140       -6.06425
C          5.74128      -25.61484       -7.46039
C          6.09521      -26.80622       -8.04851
S          6.50078      -27.02211       -9.74344
C          8.20119      -27.62027       -9.60113
S          6.06176      -28.09025       -6.93517
C          5.56471      -27.06807       -5.63545
C          5.46284      -27.67106       -4.35080
C          4.33081      -28.26811       -3.95860
H          2.66485       -1.51778       -2.96282
H          2.86779        0.71168       -4.32216
H          3.16557        2.09314       -8.21788
H          3.42511        0.36083       -7.92543
H          3.72784        1.54688       -6.62796
H          0.19169       -4.09501       -4.72872
H          2.05041       -3.59213       -2.32079
H         -0.39686       -6.18788       -4.07279
H         -1.33323      -11.35987       -0.58022
H         -0.68340      -11.39746        2.72634
H          0.26530      -13.51237        3.88794
H          1.73400      -15.50584        3.37146
H          2.94000      -17.19607        2.29435
H          3.88451      -18.75679        0.57907
H          4.33473      -17.00894       -2.96184
H          2.84624      -20.00282       -0.96234
H          3.79743      -25.55843       -3.69903
H          5.68133      -24.68632       -8.01605
H          8.59784      -27.81862      -10.60018
H          8.24722      -28.54853       -9.02564
H          8.82873      -26.86482       -9.12023
H          6.33901      -27.67266       -3.70772
H          3.44285      -28.29449       -4.58318
H          4.27020      -28.74926       -2.98715
