94

C         -4.53881       -0.15702       -3.50843
O         -4.35087       -1.37744       -2.98528
C         -3.14072       -1.40297       -2.32997
C         -2.58404       -0.11520       -2.44241
C         -3.48954        0.68444       -3.22344
C         -3.42439        2.08420       -3.69123
F         -4.50303        2.42265       -4.44646
F         -3.39056        2.97677       -2.66916
F         -2.33648        2.32189       -4.46781
O         -1.38034        0.19472       -1.87607
C         -0.95062        1.54548       -2.04301
C         -2.66265       -2.60949       -1.72211
C         -3.44877       -3.70479       -1.65848
C         -2.98630       -4.95374       -1.14029
C         -1.73760       -5.30982       -0.62520
C         -1.66957       -6.68165       -0.31192
C         -2.86482       -7.32024       -0.54748
S         -4.06653       -6.33516       -1.13735
C         -2.71396       -8.69378       -0.24719
C         -1.41912       -8.92087        0.16784
C         -0.68366       -7.65100        0.16177
C          0.60069       -7.41950        0.49466
C          1.45665       -8.46918        0.91802
N          2.15876       -9.32673        1.26054
C          1.17420       -6.11539        0.43661
N          1.64359       -5.06171        0.39206
C         -1.19682      -10.29075        0.44424
C         -2.34919      -11.05610        0.22261
S         -3.67885      -10.04691       -0.29903
C         -2.54664      -12.47144        0.36380
C         -2.94062      -12.94403        1.56136
C         -3.14015      -14.35252        1.79448
C         -2.98121      -15.36194        0.73996
C         -2.60096      -15.08122       -0.50550
S         -2.23230      -13.46360       -1.05358
C         -3.28148      -16.61005        1.33028
C         -3.60077      -16.42822        2.65489
C         -3.89218      -17.62291        3.33322
C         -3.78502      -18.69549        2.45773
S         -3.32779      -18.21012        0.85179
C         -3.50112      -15.01641        2.93112
C         -3.74777      -14.42834        4.22018
C         -2.81600      -13.71647        4.87179
C         -3.09040      -13.09891        6.11901
C         -3.97328      -13.47444        7.13265
C         -3.93441      -12.56531        8.20514
C         -3.04957      -11.53808        7.96481
S         -2.23240      -11.63737        6.52716
C         -3.06525      -10.66024        9.06464
C         -3.95103      -11.14430        9.99926
C         -4.55188      -12.37874        9.51499
C         -5.44339      -13.16815       10.14505
C         -5.94725      -12.86261       11.43937
N         -6.35254      -12.61995       12.49908
C         -5.90996      -14.37685        9.55375
N         -6.27559      -15.35761        9.07371
C         -3.98219      -10.34318       11.15022
C         -3.14633       -9.24068       11.01555
S         -2.29468       -9.25795        9.49698
C         -2.87903       -8.19604       11.96777
O         -1.62296       -7.67775       12.03931
C         -1.54111       -6.75566       13.04036
C         -2.82008       -6.63021       13.58760
C         -3.68794       -7.57305       12.91583
C         -5.12694       -7.84495       13.17047
F         -5.69308       -8.75809       12.34483
F         -5.32862       -8.31368       14.42966
F         -5.89763       -6.73618       13.03034
O         -3.02983       -5.73103       14.58755
C         -4.35783       -5.59292       15.06777
C         -0.30399       -6.13814       13.38785
C          0.68468       -6.00853       12.49009
H         -5.45644       -0.02612       -4.06547
H         -0.00657        1.70606       -1.51579
H         -1.66576        2.24592       -1.60356
H         -0.75544        1.76529       -3.09610
H         -1.64186       -2.61518       -1.35545
H         -4.46842       -3.66864       -2.04276
H         -0.92794       -4.59819       -0.53417
H         -0.26418      -10.73685        0.76948
H         -3.12814      -12.26641        2.38888
H         -2.49437      -15.87677       -1.23664
H         -4.15475      -17.72367        4.37896
H         -3.94378      -19.74447        2.67112
H         -4.74375      -14.58611        4.62584
H         -1.83104      -13.57057        4.43057
H         -4.58461      -14.36594        7.07090
H         -4.56454      -10.54793       12.03760
H         -4.37301       -4.82007       15.84119
H         -4.70185       -6.51463       15.54211
H         -5.03561       -5.25084       14.28221
H         -0.15336       -5.80643       14.41034
H          0.57962       -6.32507       11.45569
H          1.63780       -5.57328       12.77433
