78

C          1.62292       -0.46596        1.80136
C          1.33546        0.56658        0.99284
C          0.77957        0.35483       -0.31446
C          0.52272       -0.99089       -0.84858
C          0.75759       -2.12124       -0.18268
S          1.40642       -2.15746        1.43471
C          0.00884       -0.81340       -2.14925
C         -0.05903        0.52844       -2.43841
C         -0.58504        0.80026       -3.71150
C         -0.89695       -0.39174       -4.35183
S         -0.53608       -1.79150       -3.38764
C          0.42321        1.24558       -1.28345
C          0.53850        2.67901       -1.22410
C         -0.08783        3.44377       -0.31582
C          0.05903        4.89453       -0.26992
C          0.33297        5.71561       -1.37603
C          0.47349        7.12099       -1.28894
C          0.32219        7.86780       -0.09298
C          0.02679        7.05149        1.03650
C         -0.09999        5.59485        0.95213
N         -0.36602        5.12441        2.17773
O         -0.42069        6.22516        3.00558
N         -0.19083        7.39608        2.31586
C          0.44265        9.32413       -0.01263
C          0.92643       10.02354        1.11916
C          1.00936       11.43574        1.21180
C          0.63518       12.31268        0.17136
C          0.17056       11.65340       -0.99227
C          0.07373       10.19063       -1.07942
N         -0.41432        9.89169       -2.29430
O         -0.60103       11.08677       -2.94988
N         -0.25653       12.15932       -2.15970
C          0.68926       13.77288        0.26099
C          0.84980       14.72336       -0.72652
C          0.78096       16.06549       -0.23625
Cl         0.91641       17.36967       -1.34555
C          0.57624       16.12828        1.13429
S          0.53996       14.53557        1.78336
C          0.43953       17.27074        2.02592
C         -0.32083       17.40019        3.18015
Cl        -1.41580       16.26855        3.87030
C         -0.15369       18.66335        3.81806
C          0.69809       19.50962        3.13792
S          1.31546       18.72867        1.74317
C          1.03319       20.87057        3.39019
C          1.18083       21.40504        4.61085
C          1.04589       22.89411        4.72623
O          1.19924       23.72898        3.86080
C          0.58110       23.13364        6.10476
C          0.54453       21.92531        6.82745
C          1.15401       20.86727        5.97662
C          1.82128       19.78075        6.43726
C          2.71843       19.03497        5.61596
N          3.48870       18.43967        4.98489
C          1.77260       19.37055        7.80016
N          1.70592       19.03336        8.90841
C          0.01330       21.92844        8.10853
C         -0.41068       23.14574        8.66160
C         -0.32019       24.34096        7.93000
C          0.16607       24.34736        6.62718
Br        -0.88083       25.96098        8.72605
H          2.03976       -0.25121        2.78094
H          1.52214        1.58249        1.32726
H          0.54741       -3.08213       -0.63968
H         -0.74561        1.77848       -4.14535
H         -1.32473       -0.52555       -5.33583
H          1.18085        3.11082       -1.98651
H         -0.72739        2.99343        0.44202
H          0.43870        5.26696       -2.36648
H          0.71264        7.63908       -2.21900
H          1.26209        9.46304        1.99390
H          1.38703       11.84211        2.15165
H          0.99550       14.47794       -1.77235
H         -0.68427       18.94304        4.71968
H          1.04440       21.53249        2.52187
H         -0.09254       21.02820        8.70586
H         -0.80999       23.15391        9.67482
H          0.21541       25.25422        6.03262
