100

C         -0.35107       -0.80868        3.62284
C         -0.30944        0.42428        3.08828
C         -0.38352        0.62995        1.66268
C         -0.53008       -0.50642        0.73699
C         -0.59192       -1.78698        1.10201
S         -0.49728       -2.31352        2.75600
C         -0.57665        0.03387       -0.56133
C         -0.45542        1.39996       -0.49856
C         -0.52955        2.01175       -1.76300
C         -0.68039        1.04945       -2.74920
S         -0.75387       -0.56048       -2.11141
C         -0.32196        1.76597        0.89913
C         -0.18259        3.12239        1.38588
C          0.37946        4.12355        0.68855
C          0.50933        5.40787        1.26248
S         -0.65018        6.64057        0.97586
C          0.16082        7.82044        1.97531
C          1.30603        7.24732        2.49399
C          1.45445        5.92290        2.08073
C          2.60330        5.34614        2.68385
C          3.23844        6.21002        3.59097
C          4.31603        5.85059        4.50779
O          4.82116        4.73666        4.59273
O          4.64049        6.90739        5.30214
C          5.60639        6.68040        6.32520
S          2.61589        7.85751        3.58065
C         -0.35429        9.15262        2.19602
C         -1.07454        9.74978        1.21671
C         -1.63229       11.07248        1.34477
C         -1.46703       11.86788        2.56985
C         -0.80116       11.46471        3.64826
S         -0.06603        9.90190        3.77299
C         -2.09081       13.10693        2.33767
C         -2.60221       13.12915        1.06419
C         -3.24447       14.33729        0.74972
C         -3.19026       15.19775        1.83887
S         -2.35509       14.51287        3.19791
C         -2.30818       11.85275        0.44643
C         -2.62365       11.56926       -0.93788
C         -3.41164       10.57252       -1.37245
C         -3.69502       10.42781       -2.75910
S         -5.03881       11.22608       -3.49079
C         -4.76480       10.53653       -5.06049
C         -3.69370        9.68835       -5.00730
C         -3.14886        9.64940       -3.72561
C         -2.14396        8.66465       -3.69188
C         -1.99061        7.98286       -4.91443
C         -1.11648        6.84840       -5.14837
O         -0.88530        6.28343       -6.20872
O         -0.52873        6.53828       -3.95794
C          0.72315        5.87507       -4.04341
S         -2.93722        8.61415       -6.24923
C         -5.62132       10.68276       -6.18667
C         -6.26838       11.81373       -6.49206
C         -7.44368       11.81924       -7.42470
O         -7.71418       11.01406       -8.28824
C         -8.25260       12.98963       -7.00175
C         -9.44161       13.44629       -7.53103
C        -10.04137       14.55673       -6.91640
C         -9.50230       15.08426       -5.70097
C        -10.15225       16.13887       -5.05430
C        -11.25755       16.73200       -5.64771
C        -11.74473       16.28503       -6.86920
C        -11.15494       15.18367       -7.49149
F        -11.84567       17.77241       -5.04388
C         -8.29075       14.59931       -5.19616
C         -7.62577       13.63204       -5.92329
C         -6.24287       13.13179       -5.88034
C         -5.14988       13.93677       -5.76919
C         -5.26331       15.29394       -5.35593
N         -5.36466       16.39939       -5.00786
C         -3.87773       13.53238       -6.24895
N         -2.84809       13.23567       -6.69297
H         -0.28617       -0.91054        4.70315
H         -0.21459        1.28376        3.74416
H         -0.69949       -2.56543        0.35373
H         -0.48526        3.07269       -1.97524
H         -0.76285        1.20111       -3.81676
H         -0.55321        3.31392        2.39122
H          0.80205        3.97866       -0.29951
H          2.92587        4.31900        2.54139
H          6.07132        7.64409        6.55199
H          6.38916        5.98304        6.01615
H          5.09866        6.32210        7.22508
H         -1.26653        9.25389        0.27187
H         -0.69295       12.12131        4.50641
H         -3.72312       14.58430       -0.18823
H         -3.59559       16.19723        1.91834
H         -2.20478       12.28209       -1.64742
H         -3.87288        9.87278       -0.68039
H         -1.58795        8.39022       -2.80319
H          0.98012        5.54098       -3.03483
H          1.47477        6.60135       -4.36595
H          0.69340        5.01205       -4.71122
H         -5.82912        9.78817       -6.77469
H         -9.85996       12.97748       -8.41695
H         -9.79165       16.53529       -4.10888
H        -12.58103       16.79967       -7.33122
H        -11.54842       14.84473       -8.44751
H         -7.85704       15.02567       -4.29549
