94

C          1.64429       -1.65557       -3.97009
C          1.38894       -0.53963       -3.26762
C          0.89722       -0.60295       -1.91640
C          0.67993       -1.88616       -1.23016
C          0.87848       -3.08201       -1.78351
S          1.43323       -3.29652       -3.42027
C          0.23286       -1.57580        0.06902
C          0.16110       -0.21251        0.21878
C         -0.32072        0.17828        1.48004
C         -0.55815       -0.94113        2.26429
S         -0.22600       -2.42638        1.43142
C          0.59269        0.38894       -1.02656
C          0.66151        1.80863       -1.29067
C          0.92162        2.73404       -0.35401
C          1.00212        4.11590       -0.66987
C          0.34807        4.85635       -1.65728
C          0.77878        6.19751       -1.65978
C          1.70945        6.42817       -0.67460
S          2.07048        5.11840        0.27453
C          2.16585        7.75293       -0.78292
C          1.53347        8.36383       -1.84094
C          0.57684        7.42169       -2.43039
C         -0.29417        7.62722       -3.43636
C         -1.17055        6.60244       -3.88960
N         -1.87783        5.75883       -4.25651
C         -0.38653        8.88310       -4.09170
N         -0.45459        9.91006       -4.62566
C          2.04213        9.66553       -2.05777
C          3.05881        9.97362       -1.14569
S          3.27929        8.68738        0.00481
C          3.87005       11.17004       -1.08410
S          3.29262       12.69235       -1.64325
C          4.74473       13.54739       -1.23412
C          5.65409       12.67274       -0.69562
C          5.13397       11.37568       -0.62744
C          6.12101       10.52417       -0.06483
C          7.30418       11.18322        0.30502
C          8.47065       10.58878        0.94078
O          9.52203       11.14913        1.22280
O          8.21487        9.26896        1.18263
C          9.29587        8.54218        1.76022
S          7.33662       12.89876       -0.05666
C          4.90424       14.97006       -1.44418
C          6.06402       15.69957       -1.73706
C          5.78506       17.08261       -1.88402
C          4.44877       17.34136       -1.69476
S          3.51582       16.02214       -1.33902
C          4.20865       18.71821       -1.86883
C          5.39460       19.34578       -2.17144
C          6.47174       18.34490       -2.18987
C          7.78549       18.54046       -2.42523
C          8.71742       17.46441       -2.40708
N          9.47602       16.58822       -2.39324
C          8.30853       19.83635       -2.69920
N          8.73197       20.89137       -2.91385
C          5.19536       20.73342       -2.37533
C          3.85003       21.09133       -2.20879
S          2.87448       19.70288       -1.80236
C          3.21960       22.37371       -2.32350
C          3.15117       23.15048       -1.22357
C          2.54022       24.45585       -1.25247
C          1.85850       24.96988       -2.45144
C          1.81352       24.33563       -3.62277
S          2.58987       22.80049       -3.90703
C          1.30757       26.21867       -2.09675
C          1.61623       26.50152       -0.78823
C          1.10588       27.73506       -0.35032
C          0.40565       28.34782       -1.38129
S          0.39979       27.40685       -2.84188
C          2.39448       25.39666       -0.27147
C          2.84291       25.32404        1.09806
C          4.11265       25.15759        1.49042
H          2.02365       -1.55243       -4.98342
H          1.57151        0.43004       -3.71789
H          0.69218       -3.98749       -1.21462
H         -0.49025        1.19057        1.82239
H         -0.91883       -0.96925        3.28326
H          0.52803        2.10281       -2.32907
H          1.13981        2.43928        0.66856
H         -0.37062        4.41099       -2.33437
H          1.74206       10.33907       -2.85180
H          6.00167        9.45983        0.09674
H          8.93563        7.53308        1.97928
H          9.62436        9.00387        2.69582
H         10.11991        8.46955        1.04502
H          7.03696       15.23737       -1.85182
H          5.95347       21.46298       -2.63584
H          3.53728       22.80015       -0.27137
H          1.29038       24.77722       -4.46571
H          1.22496       28.16585        0.63535
H         -0.10622       29.30083       -1.36204
H          2.07018       25.45467        1.85264
H          4.93444       25.06811        0.78665
H          4.35871       25.13042        2.54820
