98

C         -0.32115        0.15901       -4.09945
C         -0.51594        1.07544       -3.13859
C         -0.98925        0.69752       -1.83489
C         -1.29790       -0.69620       -1.48626
C         -1.16127       -1.72564       -2.32044
S         -0.59523       -1.55725       -3.96069
C         -1.74544       -0.68369       -0.14888
C         -1.73567        0.60503        0.32930
C         -2.15331        0.70456        1.66655
C         -2.47837       -0.55553        2.15235
S         -2.25649       -1.81061        0.97216
C         -1.25574        1.45667       -0.73376
C         -1.11420        2.88476       -0.62471
C          0.05669        3.52103       -0.78370
C          0.16434        4.93525       -0.67290
C         -0.80327        5.89607       -0.36661
C         -0.26133        7.19256       -0.35833
C          1.07657        7.17894       -0.66578
S          1.71943        5.67814       -0.94965
C          1.55016        8.50295       -0.67451
C          0.51648        9.35582       -0.36979
C         -0.69682        8.56858       -0.13777
C         -1.92724        8.99551        0.20160
C         -3.00845        8.08973        0.40253
N         -3.88478        7.34726        0.56490
C         -2.21318       10.37103        0.38384
N         -2.44884       11.50019        0.53480
C          0.94019       10.70271       -0.39374
C          2.30344       10.82236       -0.71659
S          2.99761        9.22854       -0.99559
C          3.12272       12.00572       -0.85408
C          4.43255       11.93950       -0.53628
C          5.30393       13.07586       -0.61426
C          4.83741       14.40496       -1.01385
C          3.58469       14.67694       -1.37416
S          2.32474       13.47298       -1.42905
C          5.95608       15.25965       -0.93316
C          7.05637       14.54073       -0.53002
C          8.21868       15.31592       -0.40596
C          7.93901       16.63287       -0.74368
S          6.27687       16.87782       -1.18923
C          6.63502       13.17550       -0.33842
C          7.48107       12.10025        0.11098
C          8.57997       11.70231       -0.54783
C          9.39418       10.64409       -0.05567
C          9.05182        9.53439        0.72096
C         10.17172        8.72128        0.97946
C         11.31302        9.23036        0.40435
S         11.09722       10.64433       -0.43656
C         12.38641        8.35740        0.67691
C         11.92146        7.29693        1.42405
C         10.48971        7.47235        1.66855
C          9.65270        6.67575        2.36260
C          8.27091        6.98316        2.50632
N          7.14625        7.24024        2.62011
C         10.11192        5.49232        2.99554
N         10.49200        4.52735        3.51940
C         12.94686        6.36880        1.70121
C         14.15930        6.77227        1.13563
S         14.00130        8.29616        0.29901
C         15.42931        6.11967        1.15985
C         16.27184        6.41974        2.16671
C         17.58496        5.83773        2.24653
C         18.08805        4.90754        1.22570
C         17.38621        4.48636        0.17423
S         15.74979        4.98871       -0.14204
C         19.40883        4.58597        1.59395
C         19.73951        5.24813        2.75248
C         21.04536        4.97100        3.18963
C         21.66309        4.09214        2.30837
S         20.63393        3.62462        0.99118
C         18.58663        6.02356        3.15696
C         18.54966        6.87598        4.32145
C         17.68747        6.72523        5.33584
H          0.04038        0.49816       -5.06654
H         -0.31698        2.12237       -3.34269
H         -1.40751       -2.73145       -1.99647
H         -2.21435        1.60913        2.25756
H         -2.82988       -0.81589        3.14172
H         -2.03257        3.41694       -0.39309
H          0.95903        2.95003       -0.99826
H         -1.83571        5.64203       -0.16672
H          0.31483       11.56556       -0.19474
H          4.88924       11.02020       -0.18486
H          3.30390       15.68625       -1.65801
H          9.19462       14.96401       -0.09671
H          8.61935       17.47328       -0.75404
H          7.16998       11.62481        1.03822
H          8.87306       12.19619       -1.47264
H          8.03729        9.34320        1.04653
H         12.85246        5.44264        2.25656
H         15.98878        7.13420        2.93370
H         17.82499        3.79490       -0.53825
H         21.52332        5.36487        4.07658
H         22.66574        3.68986        2.36324
H         19.28872        7.67321        4.36326
H         16.95377        5.92441        5.35370
H         17.70949        7.39812        6.18771
