126

C          6.67181        8.32878       10.19368
C          6.67957        9.29156        9.25823
C          7.57964       10.41195        9.34593
C          8.51905       10.56934       10.46511
C          8.64347        9.70081       11.47039
S          7.69548        8.24678       11.60248
C          9.21560       11.77186       10.24199
C          8.76270       12.35173        9.07480
C          9.43678       13.54880        8.76137
C         10.36139       13.84546        9.74800
S         10.41588       12.64720       11.00336
C          7.73368       11.49774        8.53240
C          7.00892       11.72902        7.30627
C          6.74158       12.93822        6.78844
C          6.04018       13.13225        5.56171
S          6.16386       11.99066        4.29210
C          5.19819       12.90899        3.22764
C          4.87204       14.14302        3.77817
C          5.24118       14.20913        5.18342
C          4.82879       15.38833        6.04132
N          4.35772       14.91133        7.33872
C          3.70061       16.20537        5.38397
C          4.07104       16.55623        3.94657
C          4.15685       15.28777        3.08662
N          4.85385       15.60557        1.84335
C          4.92067       12.32791        1.96257
C          3.76302       12.55724        1.33179
C          3.44362       12.05004        0.01573
C          2.67342       12.84244       -0.76887
C          2.27123       12.39164       -2.07850
C          1.54262       12.99739       -3.05225
C          1.01210       14.42089       -3.17567
C         -0.39333       14.57026       -2.54343
N         -0.45704       14.29703       -1.10549
C          2.00311       15.52094       -2.69211
N          1.50112       16.89511       -2.82796
C          1.34127       11.94196       -4.05470
C          0.59553       11.89786       -5.17070
C          0.53462       10.64707       -6.05107
C          1.37530        9.48248       -5.55023
C          2.10951        9.52763       -4.42904
C          2.07323       10.73924       -3.65980
C          2.63041       11.01645       -2.47838
C          3.46121       10.20177       -1.63114
C          3.84547       10.70908       -0.44651
C          0.96370       10.99117       -7.45029
C          0.48786       10.39006       -8.55608
C          0.87452       10.74140       -9.91456
C          1.12252       12.02630      -10.22491
C          1.45508       12.44330      -11.55092
C          1.55409       11.51126      -12.67597
C          1.33198       10.20145      -12.57599
S          0.88598        9.42004      -11.07926
C          1.93729       12.28165      -13.79400
C          2.08072       13.59655      -13.41765
C          2.46186       14.44464      -14.46762
C          2.58969       13.70863      -15.63758
S          2.25313       12.01733      -15.41207
C          1.76891       13.68378      -12.01315
C          1.88339       14.88591      -11.23107
C          0.90575       15.42585      -10.48265
C          1.06272       16.66258       -9.68987
C          1.90967       17.74608      -10.02879
C          2.01261       18.91746       -9.20922
N          2.83619       19.92486       -9.53092
C          3.58113       19.80876      -10.65803
C          3.49013       18.68787      -11.46669
N          2.64977       17.67793      -11.15421
C          4.30721       18.50957      -12.70850
C          4.49241       20.94954      -10.98404
C          1.28008       19.08684       -8.04227
C          0.40523       18.04924       -7.67024
C          0.28268       16.80771       -8.50530
N         -0.59955       15.93045       -7.98656
S         -1.21271       16.61478       -6.60478
N         -0.37485       18.04509       -6.57960
H          5.96244        7.51154       10.08475
H          5.98489        9.23958        8.42782
H          9.36612        9.88092       12.26770
H          9.27240       14.16948        7.88867
H         11.01922       14.70330        9.80198
H          6.65268       10.83057        6.80350
H          7.02650       13.83705        7.32548
H          5.70400       16.03212        6.19032
H          3.60915       14.23431        7.19260
H          3.94594       15.68195        7.86049
H          3.51993       17.12507        5.95257
H          2.75722       15.64057        5.38176
H          5.02256       17.10403        3.94453
H          3.31657       17.23063        3.52196
H          3.13155       14.97631        2.86148
H          5.82817       15.82270        2.04596
H          4.44772       16.43184        1.41278
H          5.67115       11.67948        1.51964
H          3.00093       13.18826        1.77666
H          2.31308       13.79663       -0.40626
H          0.88680       14.62050       -4.25010
H         -1.09537       13.90211       -3.05580
H         -0.76775       15.58637       -2.71515
H         -0.27301       13.30531       -0.95160
H         -1.40684       14.46564       -0.77909
H          2.93860       15.44366       -3.26009
H          2.26215       15.39449       -1.64163
H          1.44170       17.16408       -3.80718
H          2.15865       17.53547       -2.38428
H         -0.00211       12.74963       -5.47521
H         -0.51203       10.31447       -6.05899
H          1.37128        8.57088       -6.14169
H          2.69879        8.68152       -4.09763
H          3.76421        9.20908       -1.93953
H          4.45830       10.10835        0.21860
H          1.72438       11.76606       -7.53064
H         -0.23190        9.57971       -8.45630
H          1.07059       12.80063       -9.46695
H          1.42776        9.56052      -13.44616
H          2.62526       15.51240      -14.39851
H          2.86080       14.06802      -16.62072
H          2.86548       15.34705      -11.29672
H         -0.06851       14.94146      -10.42745
H          4.09005       19.30464      -13.42709
H          4.07952       17.55170      -13.18930
H          5.37469       18.51354      -12.46816
H          4.43367       21.72339      -10.21223
H          4.20537       21.40054      -11.93866
H          5.52967       20.60683      -11.03968
H          1.37616       19.98486       -7.44378
