102

C          8.57731       12.22688        1.55446
C          7.37227       12.02859        0.99524
C          6.76744       13.03026        0.16097
C          7.38646       14.34621       -0.05611
C          8.57270       14.70887        0.43123
S          9.56891       13.65339        1.39645
C          6.50998       15.06664       -0.89304
C          5.42908       14.28041       -1.21231
C          4.53745       14.89436       -2.10531
C          4.97850       16.17741       -2.39949
S          6.46480       16.58091       -1.59506
C          5.59343       13.01715       -0.53246
C          4.66603       11.91680       -0.60063
C          3.37704       12.00606       -0.23006
C          2.40201       10.92254       -0.29827
C          2.48099        9.98688       -1.26328
C          1.51566        8.93331       -1.39463
C          0.32221        8.84602       -0.54978
C          0.05798        9.67925        0.45456
S          1.10587       11.00179        0.89727
C         -0.41085        7.73459       -1.01395
C          0.25693        7.14660       -2.06289
C         -0.40731        6.02775       -2.58832
C         -1.58921        5.81367       -1.89136
S         -1.84566        6.97457       -0.62410
C          1.46911        7.89860       -2.28425
C          2.44520        7.61051       -3.30569
C          3.74212        7.36038       -3.03616
C          4.76130        7.11815       -4.04406
C          4.61457        6.09994       -4.91784
C          5.59649        5.81369       -5.92470
C          6.84896        6.57048       -6.04512
C          7.17901        7.60082       -5.26769
S          6.15466        8.19183       -3.98246
C          7.57213        5.98607       -7.10281
C          6.85363        4.93553       -7.62621
C          7.49730        4.29268       -8.69520
C          8.71973        4.90439       -8.94039
S          9.03701        6.23241       -7.86560
C          5.61953        4.84446       -6.88478
C          4.62143        3.83621       -7.12558
C          3.35059        4.09619       -7.47849
C          2.32670        3.08492       -7.71560
C          2.65420        1.86489       -8.18316
C          1.68190        0.83010       -8.37560
C          0.24698        1.04622       -8.17536
C         -0.28157        2.19326       -7.75408
S          0.67235        3.60715       -7.38945
C         -0.38000       -0.18691       -8.44978
C          0.57094       -1.12305       -8.78400
C          0.04178       -2.40114       -9.01371
C         -1.33609       -2.37336       -8.84517
S         -1.93373       -0.79761       -8.41990
C          1.85711       -0.47527       -8.73002
C          3.11626       -1.13134       -8.97637
C          4.07150       -1.26320       -8.03949
C          5.35653       -1.89539       -8.28667
C          6.20510       -1.36986       -9.19436
C          7.48168       -1.97024       -9.48253
C          7.90300       -3.22620       -8.84688
C          7.20884       -3.87225       -7.91161
S          5.67850       -3.31347       -7.30356
C          9.15208       -3.55832       -9.40461
C          9.52124       -2.59925      -10.31653
C         10.76093       -2.87143      -10.92179
C         11.27923       -4.06202      -10.43216
S         10.25544       -4.80190       -9.24459
C          8.46937       -1.60115      -10.35589
C          8.47776       -0.39391      -11.15611
C          9.10263       -0.24080      -12.33108
H          8.99742       11.43490        2.16808
H          6.83539       11.10254        1.17373
H          8.97812       15.69225        0.21626
H          3.64011       14.45327       -2.51960
H          4.51435       16.90571       -3.05025
H          5.08590       10.98553       -0.97357
H          3.00694       12.95046        0.16902
H          3.27688       10.01053       -1.99941
H         -0.83833        9.55116        1.05290
H         -0.07240        5.40981       -3.41158
H         -2.32475        5.03710       -2.05326
H          2.07703        7.62663       -4.32904
H          4.08820        7.34785       -2.00672
H          3.74467        5.45491       -4.86142
H          8.12308        8.11450       -5.41699
H          7.11862        3.45258       -9.26141
H          9.45096        4.64962       -9.69546
H          4.98277        2.81610       -7.01804
H          3.03056        5.13226       -7.58760
H          3.68335        1.60982       -8.41102
H         -1.35285        2.28109       -7.60023
H          0.60408       -3.29248       -9.25988
H         -2.03154       -3.19662       -8.93495
H          3.25578       -1.54106       -9.97427
H          3.90467       -0.91118       -7.02430
H          5.92742       -0.48208       -9.75362
H          7.59542       -4.78776       -7.47555
H         11.25793       -2.27221      -11.67165
H         12.20651       -4.54365      -10.71044
H          7.91828        0.45271      -10.76425
H          9.65720       -1.04103      -12.80631
H          9.04840        0.70024      -12.87000
