98

C         -1.36452       -0.10561        1.81246
C         -1.57649        1.15557        1.40317
C         -2.61077        1.46462        0.45277
C         -3.54533        0.44274       -0.04152
C         -3.48058       -0.85016        0.26957
S         -2.25780       -1.51917        1.31512
C         -4.45626        1.10592       -0.88938
C         -4.13602        2.44007       -0.95406
C         -4.99900        3.18213       -1.77778
C         -5.96045        2.34224       -2.32415
S         -5.78287        0.69146       -1.81279
C         -2.97142        2.64717       -0.12481
C         -2.36008        3.93719        0.06571
C         -1.08416        4.23260       -0.20475
C         -0.49203        5.54790       -0.01238
C          0.54945        5.91623       -0.78537
C          1.20742        7.18414       -0.62471
C          0.81150        8.15042        0.40800
C         -0.18283        7.96729        1.27071
S         -1.16138        6.53982        1.29168
C          1.68833        9.24552        0.29068
C          2.57927        9.01122       -0.72682
C          3.47262       10.07210       -0.93510
C          3.22599       11.08222       -0.01823
S          1.91156       10.71313        1.05275
C          2.27923        7.71369       -1.28500
C          2.99381        7.08035       -2.36921
C          4.28914        7.29196       -2.63759
C          4.95682        6.60828       -3.68826
C          4.70209        5.36546       -4.22851
C          5.59258        5.00477       -5.28442
C          6.52878        6.00350       -5.52646
S          6.31901        7.32476       -4.44806
C          7.48273        5.86059       -6.53928
C          7.51750        4.70762       -7.34394
C          6.59128        3.70778       -7.08244
C          5.64563        3.84674       -6.06869
S          6.77657        2.37826       -8.13557
C          8.07718        3.10719       -9.01093
C          8.36009        4.34685       -8.45061
C          8.68201        2.44320      -10.14344
C          8.75493        1.09616      -10.15668
C          9.33405        0.36044      -11.24389
C          9.85071        1.01315      -12.44879
C          9.87370        2.33224      -12.63139
S          9.29525        3.47018      -11.44442
C         10.30935       -0.01768      -13.29362
C         10.12891       -1.23368      -12.67701
C         10.53929       -2.32206      -13.46188
C         11.02668       -1.86460      -14.67924
S         10.97579       -0.13365      -14.81993
C          9.51623       -0.98375      -11.39466
C          9.17313       -2.01004      -10.44111
C          7.92054       -2.23100      -10.01002
C          7.56267       -3.25916       -9.04916
C          8.08485       -3.24223       -7.80642
C          7.74239       -4.23560       -6.82253
C          6.80229       -5.32676       -7.11553
C          6.18645       -5.50058       -8.28383
S          6.40214       -4.43728       -9.64270
C          6.69786       -6.09358       -5.93880
C          7.49150       -5.54552       -4.96038
C          7.46667       -6.27606       -3.76027
C          6.60208       -7.35459       -3.87836
S          5.87531       -7.46262       -5.45035
C          8.13264       -4.37234       -5.51880
C          9.05809       -3.50802       -4.81987
C          9.02851       -3.25576       -3.50442
H         -0.56417       -0.28849        2.52434
H         -0.96970        1.96161        1.80322
H         -4.20100       -1.54897       -0.14304
H         -4.94512        4.24463       -1.97540
H         -6.76382        2.60259       -2.99931
H         -3.05251        4.70125        0.41843
H         -0.43414        3.46518       -0.61994
H          0.91821        5.25790       -1.56558
H         -0.41950        8.71833        2.01584
H          4.24559       10.12455       -1.68983
H          3.74610       12.02431        0.07718
H          2.41612        6.38427       -2.97186
H          4.87740        7.98097       -2.03938
H          3.90416        4.71965       -3.88103
H          8.20312        6.65672       -6.71559
H          4.92683        3.05024       -5.88888
H          9.14333        4.99525       -8.82682
H          8.36657        0.50044       -9.33830
H         10.27985        2.75144      -13.54649
H         10.47707       -3.36820      -13.19147
H         11.40560       -2.45061      -15.50545
H          9.99512       -2.63168      -10.09237
H          7.09106       -1.64530      -10.40566
H          8.77189       -2.45549       -7.51047
H          5.50273       -6.33081       -8.42634
H          8.02427       -6.05337       -2.86036
H          6.35989       -8.09286       -3.12632
H          9.81717       -3.01284       -5.42112
H          8.27132       -3.67608       -2.85108
H          9.75293       -2.58859       -3.04990
