118

C         -5.96068        1.24743       -6.63797
C         -5.05842        1.58539       -5.70084
C         -3.99401        0.69020       -5.33880
C         -3.84855       -0.64043       -5.94659
C         -4.66116       -1.13440       -6.88120
S         -6.02488       -0.25725       -7.51861
C         -2.70405       -1.22239       -5.36538
C         -2.14849       -0.34491       -4.46790
C         -1.00669       -0.84268       -3.82496
C         -0.72003       -2.11111       -4.30616
S         -1.86373       -2.66008       -5.49426
C         -2.95856        0.84733       -4.46357
C         -2.71133        1.99901       -3.63878
C         -1.58167        2.73209       -3.67419
C         -1.28605        3.90547       -2.84417
C         -0.11571        4.54998       -3.00476
C          0.25212        5.71454       -2.23868
C         -0.63915        6.27804       -1.21697
C         -1.83281        5.78541       -0.90164
S         -2.52010        4.40167       -1.67652
C          0.02245        7.38949       -0.66869
C          1.24050        7.55262       -1.28532
C          1.97320        8.63120       -0.75995
C          1.24792        9.25703        0.24604
S         -0.28984        8.50972        0.53001
C          1.37214        6.49928       -2.27206
C          2.52648        6.25168       -3.10943
C          3.37365        7.18512       -3.57229
C          4.48967        6.82360       -4.39238
C          4.67222        5.78199       -5.25080
C          5.93442        5.74727       -5.96136
C          6.45287        4.85327       -6.94143
C          5.59642        3.70788       -7.43892
C          4.63615        2.93053       -6.79487
C          4.01736        1.94239       -7.62694
C          4.52558        1.94093       -8.90241
S          5.63468        3.21283       -9.10370
C          4.17521        1.06707      -10.06208
Cl         2.77339        0.91271       -7.05531
C          7.77016        5.06125       -7.44000
C          8.56724        6.14052       -7.02719
C          8.04404        7.03225       -6.05134
C          6.72921        6.83583       -5.55069
S          5.86957        7.81134       -4.40116
C          8.87842        8.16634       -5.53016
C          8.52701        9.46706       -5.18042
C          9.60287       10.24116       -4.64955
C         10.79312        9.55461       -4.66312
S         10.55258        7.93634       -5.14999
C         12.15420       10.01105       -4.25345
Cl         9.37614       11.83644       -4.06937
C          9.83056        6.13531       -7.74518
C         10.01020        5.10169       -8.64240
S          8.65418        4.08419       -8.55368
C         11.10076        4.83264       -9.54442
C         11.37075        3.55598       -9.88695
C         12.40648        3.21031      -10.81347
C         13.25832        4.21370      -11.45292
C         13.16056        5.52448      -11.24023
S         11.99452        6.22785      -10.15659
C         14.15869        3.50498      -12.27256
C         13.91460        2.15631      -12.16456
C         14.76923        1.37006      -12.95073
C         15.65533        2.18852      -13.63735
S         15.41133        3.87705      -13.30970
C         12.81010        1.98573      -11.25466
C         12.27404        0.70540      -10.86631
C         11.00051        0.33046      -11.07264
C         10.43388       -0.95697      -10.69385
C         11.17430       -2.08251      -10.75674
C         10.65222       -3.36897      -10.39356
C          9.26412       -3.55384       -9.95794
C          8.36736       -2.57327       -9.86635
S          8.72835       -0.91311      -10.24572
C          9.11161       -4.92814       -9.69046
C         10.29405       -5.58170       -9.94331
C         10.23416       -6.95825       -9.67524
C          8.96598       -7.29310       -9.21876
S          7.89538       -5.92842       -9.13522
C         11.25215       -4.59534      -10.38508
C         12.60745       -4.90046      -10.77247
C         13.69337       -4.38629      -10.18098
H         -6.73437        1.96660       -6.89216
H         -5.11610        2.55386       -5.21499
H         -4.48684       -2.12369       -7.29195
H         -0.42192       -0.32968       -3.07262
H          0.10218       -2.75524       -4.02427
H         -3.52280        2.23362       -2.95833
H         -0.80975        2.44786       -4.38896
H          0.60694        4.20129       -3.74707
H         -2.43580        6.24866       -0.12756
H          2.96050        8.94813       -1.06424
H          1.54101       10.11053        0.84076
H          2.68843        5.20812       -3.36100
H          3.23245        8.23130       -3.33442
H          3.88960        5.03701       -5.38266
H          4.35822        3.04571       -5.75745
H          4.24573        0.00639       -9.79665
H          4.83354        1.23192      -10.92270
H          3.14975        1.27547      -10.38303
H          7.52434        9.86523       -5.26306
H         12.27883       11.08933       -4.40159
H         12.94018        9.51562       -4.83446
H         12.31869        9.79106       -3.19414
H         10.60281        6.88117       -7.61888
H         10.80488        2.72460       -9.47965
H         13.82913        6.21419      -11.74349
H         14.75638        0.29089      -13.02893
H         16.43777        1.89222      -14.32233
H         12.98912        0.03642      -10.39294
H         10.30938        1.02540      -11.55086
H         12.20882       -2.05125      -11.08100
H          7.35253       -2.78668       -9.54694
H         11.04371       -7.66788       -9.78296
H          8.60271       -8.26639       -8.91959
H         12.72470       -5.60702      -11.59154
H         13.61844       -3.70161       -9.34083
H         14.68930       -4.65381      -10.51967
