91

C          2.06224       -1.80671       -3.05759
S          2.38454       -0.29786       -3.76393
C          3.23676        0.26342       -2.36919
C          3.24673       -0.69701       -1.37026
C          2.55821       -1.90456       -1.77510
C          2.43617       -3.11049       -0.88704
S          0.73574       -3.19661       -0.21111
C          3.47934       -3.08037        0.24357
C          3.57069       -1.71241        0.92986
C          3.96755       -0.60501       -0.05006
C          3.84848        1.54522       -2.47663
C          3.86360        2.45623       -1.48912
C          4.44647        3.82778       -1.53232
C          4.62753        4.60152       -0.37598
C          5.14840        5.95769       -0.40778
N          5.32587        6.56330        0.78928
C          4.96156        5.95274        1.93638
C          4.44481        4.69181        1.94073
N          4.28901        4.01093        0.79257
C          5.46334        6.66485       -1.63641
C          5.29014        5.87264       -2.80644
C          4.80800        4.44606       -2.75569
N          4.75651        3.88280       -3.97646
S          5.24664        4.98099       -5.07955
N          5.47618        6.25046       -4.07505
C          5.89154        8.13289       -1.72900
S          5.53465        9.13155       -0.34107
C          6.31014       10.51183       -0.92791
C          6.71918       10.32511       -2.22452
C          6.47035        8.98132       -2.70150
S          6.96100        8.59428       -4.36884
C          6.83609       10.14794       -5.13104
O          6.05180       10.53724       -5.96510
C          8.03233       10.87569       -4.57388
O          9.14231       10.93297       -5.05802
S          7.45549       11.66320       -3.14545
C          6.45386       11.65079       -0.09571
C          5.38835       12.41049        0.19748
C          5.44128       13.65747        0.98078
C          4.62947       14.75002        0.68663
C          4.66737       15.98035        1.44793
N          3.80275       16.93036        1.06768
C          2.98794       16.75229        0.00195
C          2.98742       15.59470       -0.71317
N          3.79900       14.58759       -0.37007
C          5.55342       16.22095        2.54851
C          6.40093       15.08294        2.85571
C          6.31130       13.78962        2.08369
N          7.11191       12.82190        2.56884
S          7.95860       13.45645        3.82142
N          7.35715       14.97960        3.79835
C          5.63364       17.51044        3.38848
S          6.52343       17.42599        4.88990
C          6.40998       19.06378        5.29327
C          5.52667       19.67440        4.43410
C          5.11989       18.82416        3.30223
C          4.24910       19.51847        2.27422
S          5.29485       20.49359        1.12410
C          3.14789       20.39680        2.90665
C          3.49212       21.08060        4.23264
C          4.97719       21.06842        4.57099
C          7.13185       19.51761        6.43605
C          7.58205       20.77136        6.56905
H          1.51783       -2.55719       -3.61537
H          2.59182       -4.02155       -1.47654
H          0.63054       -1.89149        0.08217
H          4.46552       -3.31311       -0.18073
H          3.27335       -3.86038        0.98617
H          4.30627       -1.75298        1.74126
H          2.60997       -1.46156        1.39484
H          5.04562       -0.66338       -0.24602
H          3.77792        0.35496        0.43712
H          4.28792        1.75131       -3.44428
H          3.38219        2.21487       -0.54336
H          5.09524        6.52441        2.85064
H          4.14402        4.19083        2.85148
H          7.45836       11.90690        0.22723
H          4.41169       12.16109       -0.21556
H          2.34302       17.58513       -0.25306
H          2.34510       15.43750       -1.57055
H          3.69856       18.85949        1.63653
H          5.99926       19.44738        0.66948
H          2.27925       19.75059        3.10367
H          2.78084       21.14083        2.18824
H          2.94945       20.55917        5.03416
H          3.11274       22.10848        4.23342
H          5.08441       21.43710        5.59608
H          5.52995       21.75319        3.91896
H          7.37489       18.79543        7.21337
H          7.43333       21.53733        5.81644
H          8.14566       21.05545        7.45246
