88

C          5.17869       -2.74563        0.96528
N          4.46208       -3.83300        1.00740
C          3.28873       -3.43637        0.45031
C          3.35208       -2.04447        0.07657
C          2.05419       -1.64607       -0.52228
O          1.71326       -0.56780       -0.95377
C          1.27821       -2.90830       -0.45842
C          2.09643       -3.93365        0.13930
N          1.40552       -5.10005        0.20509
C          0.25397       -4.78387       -0.31993
C          0.08237       -3.38714       -0.77531
C          4.53962       -1.53835        0.37817
C          5.10031       -0.23790        0.22353
C          6.35109        0.06406        0.60279
C          6.89518        1.36285        0.42734
C          6.26231        2.60610        0.43005
C          7.19168        3.65069        0.28436
C          8.47306        3.17337        0.11892
S          8.61407        1.52258        0.17513
C          9.34739        4.26556       -0.04799
C          8.61393        5.42732        0.01694
C          7.21388        5.11037        0.28656
C          6.20779        5.96024        0.57472
C          4.88693        5.50031        0.81220
N          3.80559        5.11504        1.00493
C          6.43345        7.35640        0.72784
N          6.65211        8.48752        0.88483
C          9.41100        6.56448       -0.21914
C         10.75510        6.22068       -0.35235
S         10.97372        4.48742       -0.28481
C         11.93292        7.05742       -0.49418
N         13.09654        6.65500       -0.02748
C         13.93415        7.68225       -0.29758
C         13.23266        8.74348       -0.96451
C         14.19585        9.83778       -1.25858
O         14.00075       10.89406       -1.81631
C         15.46041        9.31557       -0.67800
C         15.20889        8.01071       -0.12208
N         16.34401        7.50442        0.42269
C         17.21436        8.45100        0.20634
C         16.73065        9.65800       -0.50060
C         11.94967        8.43254       -1.12319
C         10.89815        9.16233       -1.76668
C         10.51275       10.39540       -1.39632
C          9.45560       11.15924       -2.02029
C          8.20712       10.70206       -2.22627
C          7.21769       11.58734       -2.86736
C          5.92094       11.21317       -3.01745
C          4.96425       12.05570       -3.64265
N          4.19329       12.76392       -4.16320
C          5.44517        9.95814       -2.55058
N          5.09674        8.90821       -2.16900
C          7.71954       12.88512       -3.36041
C          8.98117       13.26119       -3.07716
O          9.84224       12.45834       -2.33848
C          9.57930       14.50755       -3.52444
C          9.21044       15.76897       -3.22496
C          8.15755       16.25842       -2.33222
C          7.68470       17.53230       -2.67579
C          8.61158       18.24088       -3.59060
C          8.67930       19.56448       -3.86499
C          7.74425       20.51090       -3.36198
N          6.97953       21.28407       -2.95495
C          9.75703       20.12450       -4.61064
N         10.64151       20.61200       -5.18588
S          9.86610       17.11221       -4.12601
C          6.52345       18.00898       -2.05746
C          5.95023       17.30496       -0.99494
C          6.54923       16.13891       -0.53272
C          7.66180       15.62363       -1.19424
H          6.21193       -2.68373        1.33795
H         -0.58127       -5.48995       -0.44041
H         -0.77313       -2.92858       -1.22870
H          4.45077        0.51019       -0.22981
H          6.99186       -0.68585        1.05970
H          5.19302        2.71550        0.56163
H          9.03830        7.57707       -0.23752
H         18.26878        8.39846        0.51728
H         17.28119       10.53688       -0.76942
H         10.43400        8.67495       -2.62136
H         11.02852       10.92485       -0.59656
H          7.93864        9.69603       -1.90778
H          7.07909       13.54769       -3.93756
H         10.40328       14.36529       -4.22913
H          6.03872       18.93380       -2.34908
H          5.06634       17.69598       -0.49486
H          6.14763       15.61913        0.33324
H          8.14287       14.74002       -0.79077
