114

C          6.62351        2.63838        0.80986
C          5.78483        1.75288        1.35025
C          6.19128        0.43198        0.99967
C          7.40656        0.55671        0.16928
O          8.08110       -0.30718       -0.32545
N          7.58681        1.96294        0.10201
C          5.29559       -0.38019        1.55629
O          4.29401        0.31103        2.29918
C          4.58217        1.66105        2.17403
O          3.96154        2.58397        2.64864
C          5.23873       -1.79878        1.47317
C          6.02787       -2.68657        0.77416
C          5.67184       -4.09254        0.89419
C          6.24646       -5.25412        0.30491
C          7.42688       -5.09456       -0.60954
C          8.51644       -4.23300       -0.53595
C          9.44484       -4.37163       -1.61380
C          9.06759       -5.34897       -2.50356
S          7.55090       -6.00025       -2.07939
C          9.75273       -5.83895       -3.73557
Cl        10.84699       -3.39616       -1.73417
C          5.71758       -6.53815        0.60260
C          4.59552       -6.70545        1.43304
C          3.97590       -5.53392        1.98315
C          4.54698       -4.24906        1.72199
S          4.02748       -2.68723        2.28327
C          2.73205       -5.65687        2.83314
C          2.29648       -4.91844        3.93184
C          1.03424       -5.33422        4.46348
C          0.51266       -6.41234        3.79007
S          1.49113       -6.81029        2.44846
C         -0.75812       -7.16017        4.04488
Cl         0.29335       -4.53786        5.78771
C          4.30641       -8.13060        1.57869
C          5.12033       -8.97863        0.85894
S          6.31765       -8.08311        0.08215
C          5.07193      -10.42661        0.80125
C          4.59793      -11.27927        1.79970
C          4.66967      -12.64168        1.41647
C          5.25272      -12.76592        0.17930
S          5.63593      -11.33505       -0.57229
C          5.36452      -14.13487       -0.12721
C          4.85310      -14.88520        0.91196
C          4.34392      -13.98848        1.94646
C          3.62900      -14.26804        3.06538
C          2.97203      -13.03430        3.66260
N          2.42701      -12.01082        4.15806
C          3.30070      -15.56950        3.51429
N          3.04296      -16.63772        3.87089
C          4.91459      -16.26360        0.62272
C          5.48164      -16.48629       -0.63736
S          5.93277      -15.00296       -1.41818
C          5.67141      -17.74136       -1.32111
C          6.66863      -18.09182       -2.20148
C          6.57104      -19.44092       -2.72679
C          7.41775      -20.17601       -3.60609
C          8.66905      -19.52663       -4.12493
C          8.91114      -18.21330       -4.51692
C         10.25448      -17.97077       -4.94316
C         11.00970      -19.11886       -4.95948
S         10.15877      -20.40318       -4.23250
C         12.41135      -19.32756       -5.42963
Cl        10.80663      -16.41220       -5.38615
C          7.05774      -21.49696       -3.99005
C          5.87516      -22.10143       -3.53653
C          5.05331      -21.38075       -2.62876
C          5.41360      -20.06857       -2.23242
S          4.57105      -19.00636       -1.14916
C          3.80982      -22.03561       -2.11442
C          2.86455      -22.80663       -2.78131
C          1.83927      -23.32698       -1.93403
C          1.96406      -22.88895       -0.63680
S          3.40366      -21.99501       -0.43466
C          1.09580      -23.15251        0.54811
Cl         0.62508      -24.38162       -2.52172
C          5.72385      -23.42144       -4.12136
C          6.76383      -23.83657       -4.92274
S          7.90243      -22.58593       -5.04201
C          6.97133      -25.05557       -5.61012
C          6.43832      -26.24667       -5.33038
C          6.92122      -27.17951       -6.29203
C          7.82452      -26.47737       -7.21487
O          8.42797      -26.92993       -8.16165
N          7.79647      -25.17662       -6.71581
C          6.36471      -28.33539       -5.98870
O          5.52039      -28.29351       -4.86208
C          5.55353      -26.97272       -4.41663
O          4.95675      -26.52197       -3.45865
H          6.59811        3.72369        0.86188
H          8.35048        2.38881       -0.41281
H          6.84693       -2.33962        0.15952
H          8.66093       -3.50672        0.25341
H         10.38397       -5.06213       -4.17723
H          9.02567       -6.13676       -4.49895
H         10.38376       -6.70655       -3.51197
H          2.84160       -4.08855        4.36055
H         -0.99900       -7.19406        5.11378
H         -0.70263       -8.19795        3.69776
H         -1.59031       -6.67109        3.52803
H          3.51179       -8.52877        2.19379
H          4.23903      -10.88713        2.74176
H          4.55884      -17.06369        1.26157
H          7.45774      -17.39653       -2.45161
H          8.16503      -17.42976       -4.49792
H         12.59015      -18.81481       -6.38159
H         12.63634      -20.38808       -5.59167
H         13.11746      -18.93968       -4.68971
H          2.91049      -23.03088       -3.83910
H          0.07749      -23.42790        0.25489
H          1.01648      -22.26957        1.19289
H          1.51423      -23.97304        1.13922
H          4.86709      -24.05797       -3.94773
H          8.32452      -24.41600       -7.12123
H          6.45489      -29.29640       -6.46378
