80

C          4.26151        1.86948        0.94532
C          4.42916        0.80408        0.16182
C          3.68432       -0.28492        0.69711
C          3.01682        0.18765        1.92176
O          2.30059       -0.43231        2.67577
N          3.42879        1.52452        1.99073
C          3.90249       -1.29782       -0.12359
O          4.76410       -0.98407       -1.21310
C          5.10526        0.35030       -1.05037
O          5.82362        1.01340       -1.77319
C          3.37969       -2.61164       -0.02329
C          2.17460       -3.06176        0.53183
C          2.03810       -4.46463        0.42212
C          3.13251       -5.02652       -0.19124
S          4.30614       -3.95301       -0.65647
C          2.95309       -6.42270       -0.26382
C          1.74254       -6.75182        0.29552
C          1.08820       -5.52638        0.76959
C         -0.10388       -5.40397        1.38586
C         -0.91674       -6.53548        1.66752
N         -1.58064       -7.45978        1.89536
C         -0.61635       -4.13827        1.78259
N         -1.04706       -3.10809        2.09698
C          1.51277       -8.14746        0.23789
C          2.57163       -8.84013       -0.37818
S          3.84165       -7.70121       -0.82351
C          2.73301      -10.25958       -0.63474
C          3.42166      -10.66654       -1.72381
C          3.64385      -12.05635       -2.04217
C          3.11573      -13.13693       -1.20505
C          2.40372      -12.94581       -0.09606
S          1.99294      -11.36949        0.52176
C          3.52105      -14.34702       -1.80414
C          4.25497      -14.08122       -2.93543
C          4.70332      -15.24895       -3.57878
C          4.27462      -16.37268       -2.89099
S          3.34312      -15.97783       -1.48582
C          4.32542      -12.64041       -3.07759
C          5.00675      -11.91887       -4.12934
C          5.66786      -12.46085       -5.16204
C          6.30548      -11.66662       -6.14821
C          6.39395      -10.28081       -6.26344
C          7.12439       -9.91112       -7.39963
C          7.56533      -11.00877       -8.09872
S          7.13243      -12.47138       -7.45672
C          8.29508      -10.56802       -9.21488
C          8.30939       -9.19232       -9.22101
C          7.57000       -8.69247       -8.06480
C          7.35173       -7.42078       -7.67910
C          7.87752       -6.32340       -8.41103
N          8.31935       -5.42807       -8.99396
C          6.59829       -7.10063       -6.51437
N          5.98347       -6.86326       -5.55777
C          9.01739       -8.69622      -10.33179
C          9.52636       -9.73214      -11.12141
S          9.11097      -11.29395      -10.45786
C         10.27815       -9.67600      -12.31656
C         10.23884       -8.71435      -13.24037
C         11.15112       -9.06612      -14.27461
C         11.78008      -10.34945      -13.92745
O         12.60415      -10.97466      -14.55594
N         11.17898      -10.64930      -12.70634
C         11.07793       -8.09325      -15.16094
O         10.16378       -7.07213      -14.83047
C          9.60509       -7.45234      -13.61177
O          8.74851       -6.85146      -12.99052
H          4.67736        2.86137        0.84139
H          3.13709        2.14292        2.73726
H          1.45378       -2.38497        0.97763
H          0.63060       -8.65800        0.60752
H          3.84130       -9.94248       -2.41243
H          2.04909      -13.79724        0.47604
H          5.29973      -15.32432       -4.47628
H          4.46729      -17.40557       -3.14678
H          4.95879      -10.83822       -4.04550
H          5.74094      -13.52979       -5.28809
H          5.94778       -9.60381       -5.54862
H          9.16772       -7.64856      -10.56803
H         11.37916      -11.49067      -12.18095
H         11.59822       -7.96103      -16.09361
