99

C          6.23522       -0.21364       -2.46493
C          6.31222       -1.47655       -2.04450
C          5.01062       -2.04465       -2.05443
C          4.06928       -1.01694       -2.53570
O          2.87011       -1.10030       -2.68328
N          4.91954        0.07190       -2.75952
C          5.16041       -3.29474       -1.63741
O          6.51984       -3.63360       -1.32962
C          7.25630       -2.48820       -1.57682
O          8.45537       -2.35036       -1.43146
C          4.14901       -4.28386       -1.47924
C          2.79966       -4.13145       -1.25500
C          2.00218       -5.36067       -1.17349
C          0.51786       -5.29510       -0.93633
C         -0.15215       -4.04728       -0.81596
C         -1.53877       -3.94172       -0.60485
C         -2.28650       -5.09167       -0.44897
C         -1.67674       -6.32764       -0.58492
C         -0.29343       -6.42498       -0.83105
O         -2.56268       -7.36456       -0.45752
C         -2.08037       -8.61172       -0.90846
O         -2.06801       -2.67837       -0.54497
C         -3.43630       -2.58142       -0.95066
C          2.84212       -6.47394       -1.38401
S          4.50827       -5.95017       -1.53836
C          2.67065       -7.93922       -1.47257
C          2.14693       -8.83387       -0.56028
C          2.23270      -10.24294       -0.95178
C          1.60463      -11.30668       -0.14965
C          0.22222      -11.27175        0.04790
C         -0.45804      -12.23102        0.79512
C          0.25824      -13.27797        1.34952
C          1.64899      -13.32199        1.20104
C          2.32147      -12.31872        0.48451
O          2.23014      -14.40841        1.79589
C          3.64588      -14.39798        1.89905
O         -1.80028      -12.01689        0.94489
C         -2.59309      -13.19696        1.01284
C          2.90661      -10.41476       -2.17035
S          3.29554       -8.83194       -2.80946
C          3.32029      -11.60278       -2.96411
C          3.89114      -11.62019       -4.22831
C          4.37416      -12.91553       -4.68553
C          5.19763      -13.05377       -5.90856
C          6.38171      -13.80498       -5.90077
C          7.17188      -13.91618       -7.04767
C          6.82629      -13.21553       -8.20183
C          5.70318      -12.39331       -8.21437
C          4.88256      -12.33447       -7.07637
O          5.32115      -11.59758       -9.26266
C          6.14675      -11.63077      -10.42606
O          8.29111      -14.69400       -7.16659
C          8.95292      -15.02671       -5.95308
C          4.03009      -13.94721       -3.79270
S          3.20254      -13.22329       -2.44622
C          4.25827      -15.37939       -3.79490
C          4.14588      -16.26495       -2.78831
C          4.63522      -17.52585       -3.25028
C          4.97505      -17.41566       -4.66121
O          5.40698      -18.27778       -5.39453
N          4.69005      -16.07688       -4.91850
C          4.64035      -18.35054       -2.21454
O          4.14121      -17.78597       -1.03650
C          3.75908      -16.49223       -1.38524
O          3.15589      -15.73357       -0.65829
H          7.02565        0.51492       -2.58072
H          4.57683        0.96325       -3.10195
H          2.39095       -3.14338       -1.15095
H          0.37582       -3.10249       -0.90453
H         -3.34890       -5.07087       -0.23455
H          0.14963       -7.39658       -0.94175
H         -2.82275       -9.38369       -0.69433
H         -1.18424       -8.84939       -0.34689
H         -1.88935       -8.59148       -1.98664
H         -3.72308       -1.52614       -0.93613
H         -4.10832       -3.10212       -0.25986
H         -3.56716       -2.95373       -1.97359
H          1.70100       -8.51565        0.37620
H         -0.35437      -10.49609       -0.41659
H         -0.22859      -14.05852        1.92466
H          3.39839      -12.33577        0.37092
H          3.96034      -15.38337        2.25406
H          3.95487      -13.64703        2.62995
H          4.14827      -14.22703        0.94246
H         -3.64218      -12.89714        0.92407
H         -2.47415      -13.70720        1.97357
H         -2.36466      -13.86723        0.17783
H          4.04941      -10.71678       -4.80603
H          6.67334      -14.31675       -4.99083
H          7.47709      -13.31201       -9.06537
H          4.00164      -11.69598       -7.11288
H          5.75513      -10.90306      -11.14351
H          6.10945      -12.61856      -10.89761
H          7.17983      -11.34213      -10.19983
H          9.87043      -15.56375       -6.20952
H          8.34377      -15.69188       -5.33325
H          9.23224      -14.12001       -5.40621
H          4.79899      -15.68814       -5.84419
H          4.96102      -19.37339       -2.13566
