122

C         -7.28834        4.23716        0.41645
C         -5.95514        4.53150        0.11379
C         -5.63449        4.66732       -1.22017
C         -6.58854        4.54692       -2.20860
C         -5.91726        4.67447       -3.49183
O         -6.51000        4.56494       -4.54658
N         -4.59192        4.89018       -3.22576
C         -4.34499        4.85527       -1.87692
O         -3.28573        4.90571       -1.28012
C         -3.52582        4.87297       -4.21069
C         -3.91735        5.40989       -5.57611
C         -7.91209        4.26627       -1.93932
C         -8.26924        4.09639       -0.59841
C         -9.63986        3.69425       -0.28503
C        -10.25012        4.00045        0.86229
C        -11.64308        3.63345        1.10595
C        -12.57749        4.58096        0.65736
C        -13.91362        4.27800        0.80405
C        -14.34772        3.09129        1.33535
C        -15.80904        3.12876        1.33771
O        -16.51322        2.21116        1.70919
N        -16.17277        4.36410        0.86126
C        -15.07386        5.09458        0.50163
O        -14.97438        6.21433        0.04875
C        -17.55364        4.82415        0.84801
C        -17.77120        6.22628        0.30317
C        -13.45253        2.14308        1.79831
C        -12.06455        2.42202        1.71814
C        -11.17527        1.37117        2.27310
C         -9.99465        1.52984        2.91050
C         -9.20542        0.44573        3.58126
C         -9.83899       -0.81045        3.74997
C         -9.19477       -1.80565        4.45056
C         -7.93784       -1.63387        4.96106
C         -7.59134       -2.83202        5.71887
O         -6.51340       -3.00262        6.25482
N         -8.69372       -3.64375        5.67870
C         -9.67091       -3.11322        4.87779
O        -10.75642       -3.54875        4.54968
C         -8.73101       -4.93534        6.34215
C        -10.11810       -5.39803        6.74902
C         -7.25963       -0.45085        4.81311
C         -7.88652        0.63511        4.15413
C         -7.15927        1.94457        4.16600
C         -6.01427        2.20684        4.83158
C         -5.35894        3.53546        4.94513
C         -6.19665        4.66319        4.98982
C         -5.59985        5.89903        5.08639
C         -4.23533        6.04939        5.17952
C         -3.94827        7.47841        5.19619
O         -2.82300        7.93864        5.23189
N         -5.15596        8.11071        5.11418
C         -6.19853        7.22851        5.04407
O         -7.38966        7.42729        4.93135
C         -5.30493        9.54474        5.00691
C         -4.73580       10.06062        3.69476
C         -3.37443        4.97883        5.18456
C         -3.93040        3.69110        5.08427
C         -2.99137        2.55565        4.95688
C         -1.75285        2.43843        5.47270
C         -0.78716        1.34654        5.15924
C          0.57995        1.71795        5.12775
C          1.51970        0.77643        4.73491
C          1.15154       -0.50386        4.38761
C          2.33078       -1.18504        3.86097
O          2.30784       -2.29806        3.37069
N          3.36926       -0.29686        3.94822
C          2.95724        0.90498        4.46432
O          3.58943        1.93020        4.62841
C          4.63580       -0.51003        3.26948
C          5.61602       -1.37986        4.03908
C         -0.15752       -0.93160        4.45605
C         -1.14022       -0.00870        4.86610
C         -2.50493       -0.54569        4.94728
C         -3.32041       -0.57857        3.88512
H         -7.55564        4.08866        1.45987
H         -5.20168        4.61424        0.88981
H         -3.18541        3.83404       -4.30237
H         -2.68346        5.45089       -3.81324
H         -4.66320        4.77008       -6.05787
H         -3.04918        5.44167       -6.23984
H         -4.33446        6.41842       -5.49322
H         -8.62421        4.16154       -2.75308
H        -10.17160        3.13549       -1.06406
H         -9.78315        4.60602        1.63466
H        -12.27852        5.52635        0.22168
H        -17.91679        4.77242        1.87904
H        -18.14027        4.09906        0.27353
H        -17.20849        6.96514        0.88523
H        -18.82702        6.50327        0.35370
H        -17.45104        6.29403       -0.74181
H        -13.83120        1.22562        2.23861
H        -11.62095        0.38368        2.18427
H         -9.59299        2.53005        3.00266
H        -10.84434       -1.02621        3.40344
H         -8.10063       -4.86803        7.23735
H         -8.26225       -5.66623        5.67465
H        -10.59881       -4.66263        7.40330
H        -10.06226       -6.35153        7.28189
H        -10.76330       -5.55319        5.87935
H         -6.27896       -0.38867        5.27053
H         -7.64397        2.74551        3.62496
H         -5.48735        1.44334        5.39253
H         -7.27802        4.59582        4.94078
H         -4.77837       10.00433        5.84958
H         -6.36694        9.80223        5.07573
H         -3.65696        9.88225        3.63419
H         -4.90473       11.13648        3.60252
H         -5.20077        9.55670        2.84091
H         -2.30368        5.15313        5.21281
H         -3.37524        1.79694        4.29453
H         -1.34494        3.23563        6.09453
H          0.90434        2.73338        5.34408
H          5.09709        0.45775        3.04649
H          4.41171       -0.99929        2.31432
H          5.12915       -2.23800        4.51162
H          6.12154       -0.80116        4.81849
H          6.38658       -1.75816        3.35708
H         -0.41501       -1.94681        4.16583
H         -2.81638       -0.93796        5.91173
H         -3.02740       -0.16257        2.92448
H         -4.32749       -0.96829        3.97328
