98

C        -11.77705        9.79595        0.58448
C        -10.91533       10.20490       -0.36621
C         -9.78053        9.30313       -0.39637
C         -8.63275        9.48906       -1.20300
N         -7.68299        9.63342       -1.85615
C         -9.96250        8.31916        0.50275
C        -11.22684        8.57788        1.18780
C        -11.78860        7.87967        2.19346
C        -11.32381        6.64495        2.85545
C        -12.21702        6.37981        3.83426
C        -13.25867        7.38661        3.84435
C        -13.02107        8.28138        2.87386
C        -14.34813        7.40902        4.75001
N        -15.23609        7.43047        5.48994
C        -10.21407        5.75705        2.62429
C        -10.01870        5.09472        1.47598
C         -8.91993        4.17587        1.23340
C         -8.13895        4.41044        0.16719
C         -7.10433        3.50364       -0.24646
C         -6.78631        2.29164        0.51294
C         -7.42972        1.90831        1.61251
S         -8.75428        2.80253        2.31157
C         -5.72193        1.66026       -0.17147
C         -5.38405        2.40036       -1.27990
C         -4.31169        1.85227       -2.00539
C         -3.89020        0.67331       -1.40360
S         -4.80228        0.28353        0.02281
C         -6.27352        3.54056       -1.32933
C         -6.23431        4.56038       -2.35176
C         -7.33019        5.16344       -2.84230
C         -7.33205        6.24413       -3.82696
C         -6.40232        6.31102       -4.86419
F         -5.44648        5.37771       -4.97963
C         -6.45831        7.32628       -5.81090
F         -5.55971        7.32679       -6.80722
C         -7.41572        8.33531       -5.72662
C         -8.36640        8.25608       -4.70334
C         -8.34033        7.21169       -3.78511
F         -9.30067        7.14709       -2.84619
F         -9.33521        9.18240       -4.60881
C         -7.49763        9.41198       -6.70379
C         -8.59091        9.49942       -7.49630
C         -8.53942       10.72346       -8.25780
C         -9.57726       11.17891       -9.09753
N        -10.43248       11.55047       -9.78987
C         -7.41008       11.38643       -7.96589
C         -6.62609       10.56344       -7.03741
C         -5.36029       10.82913       -6.64436
C         -4.45206       11.88333       -7.16142
C         -3.26476       11.71039       -6.53901
C         -3.34685       10.59557       -5.61938
C         -4.57904       10.07146       -5.66790
C         -2.27308       10.13347       -4.82313
N         -1.39153        9.74739       -4.17882
C         -4.62422       12.88767       -8.18419
C         -3.88534       12.92607       -9.30347
C         -4.02645       13.91420      -10.34304
C         -4.38218       13.53088      -11.59071
C         -4.43289       14.67725      -12.47046
C         -4.75310       14.61708      -13.84577
N         -5.02736       14.57064      -14.97347
C         -4.09797       15.78128      -11.78406
C         -3.85775       15.39555      -10.38770
C         -3.52462       16.24795       -9.39096
C         -3.40661       17.73303       -9.43650
C         -2.94545       18.10619       -8.21986
C         -2.76120       16.95228       -7.37302
C         -3.12903       15.85153       -8.03997
C         -2.29566       16.99900       -6.03852
N         -1.91536       17.02869       -4.94336
C         -3.87732       18.70688      -10.40078
C         -3.39914       19.95161      -10.53927
H        -12.70413       10.28132        0.84268
H        -11.02911       11.06747       -1.00553
H         -9.26217        7.53026        0.71284
H        -12.19574        5.53162        4.50427
H        -13.61977        9.15168        2.65711
H         -9.54373        5.59837        3.46734
H        -10.68649        5.26326        0.63071
H         -8.30063        5.31044       -0.41461
H         -7.15254        0.98885        2.11465
H         -3.86175        2.25947       -2.90212
H         -3.09362        0.01250       -1.71923
H         -5.23944        4.81779       -2.70804
H         -8.32167        4.88367       -2.49368
H         -9.43352        8.82093       -7.51200
H         -7.17451       12.37430       -8.31923
H         -2.36362       12.28302       -6.69617
H         -4.90255        9.24134       -5.06922
H         -5.37423       13.65106       -7.99371
H         -3.15175       12.14318       -9.50226
H         -4.59249       12.52117      -11.91562
H         -3.98442       16.75951      -12.21856
H         -2.80280       19.11799       -7.86725
H         -3.08892       14.85955       -7.63189
H         -4.70638       18.40904      -11.03682
H         -2.58813       20.33780       -9.92987
H         -3.81892       20.62767      -11.27803
