102

C        -11.10368       -2.22276       -6.36777
C        -10.17867       -3.03623       -5.82821
C         -9.66653       -2.43217       -4.61140
C         -8.71929       -3.05765       -3.76389
N         -7.95364       -3.59662       -3.07930
C        -10.25883       -1.23825       -4.41320
C        -11.22122       -1.04893       -5.49973
C        -12.09581       -0.04232       -5.68546
C        -12.32388        1.16190       -4.87038
C        -13.35536        1.82020       -5.44458
C        -13.82736        1.08933       -6.60187
C        -13.08243       -0.01148       -6.76624
C        -14.91545        1.48292       -7.40802
N        -15.81905        1.80226       -8.07116
C        -11.62608        1.68014       -3.72287
C        -12.22745        1.92449       -2.54568
C        -11.58270        2.49885       -1.37179
C        -10.59303        3.40207       -1.50634
C         -9.97263        4.03661       -0.38051
C        -10.36695        3.74940        1.00201
C        -11.33075        2.89528        1.34201
S        -12.26670        2.00050        0.17547
C         -9.53275        4.53475        1.82333
C         -8.66992        5.26258        1.03904
C         -7.81144        6.09486        1.77100
C         -8.07151        5.95424        3.12727
S         -9.34129        4.81374        3.45802
C         -8.95647        4.94506       -0.33696
C         -8.21592        5.46917       -1.45661
C         -8.77067        6.11492       -2.49528
C         -7.99838        6.57641       -3.60251
C         -6.80752        6.13893       -4.13532
O         -6.14111        5.07142       -3.62469
C         -5.09484        4.63829       -4.50203
C         -4.32941        5.82723       -5.09479
C         -3.18642        5.35633       -5.97913
O         -5.20132        6.63423       -5.90120
C         -6.35912        6.90833       -5.24727
C         -7.20873        7.94761       -5.61346
S         -8.59611        7.86765       -4.55633
C         -7.09918        8.97555       -6.64561
C         -8.02891        9.95437       -6.72993
C         -7.94719       11.04718       -7.66001
C         -6.86210       11.16892       -8.63245
C         -5.85816       10.30477       -8.74394
S         -5.70840        8.89628       -7.74438
C         -7.11135       12.33963       -9.37106
C         -8.26709       12.93231       -8.92007
C         -8.57817       14.11582       -9.60983
C         -7.61055       14.36897      -10.57512
S         -6.36335       13.16359      -10.61433
C         -8.77736       12.11772       -7.83783
C         -9.99793       12.38603       -7.11300
C        -10.08118       12.54744       -5.77790
C        -11.31422       12.78768       -5.05179
C        -12.31839       13.52654       -5.58436
C        -13.35149       13.76769       -4.60584
C        -14.53853       14.48884       -4.86708
N        -15.51153       15.07891       -5.09532
C        -12.99755       13.21679       -3.43589
C        -11.71207       12.53250       -3.62892
C        -11.09951       11.77681       -2.69240
C        -11.51025       11.53815       -1.28609
C        -10.58553       10.71668       -0.74808
C         -9.58588       10.38289       -1.73181
C         -9.88717       10.98280       -2.89290
C         -8.46238        9.57190       -1.45269
N         -7.53521        8.92486       -1.19306
C        -12.59151       12.05776       -0.48477
C        -13.48720       11.28435        0.14479
H        -11.65896       -2.41472       -7.27112
H         -9.86303       -3.99039       -6.22345
H        -10.08628       -0.57827       -3.57884
H        -13.77331        2.76367       -5.12191
H        -13.21325       -0.75721       -7.53351
H        -10.56855        1.88542       -3.87384
H        -13.28400        1.68192       -2.42941
H        -10.23278        3.69282       -2.48697
H        -11.57062        2.72555        2.38676
H         -7.06486        6.76260        1.35865
H         -7.58938        6.46304        3.95036
H         -7.14029        5.32049       -1.39480
H         -9.83843        6.32084       -2.49301
H         -5.54740        4.01854       -5.28667
H         -4.42347        4.00520       -3.91331
H         -3.93100        6.46590       -4.29531
H         -3.54900        4.68280       -6.76360
H         -2.42719        4.83203       -5.39162
H         -2.71724        6.20663       -6.48509
H         -8.89306        9.98563       -6.07999
H         -5.08027       10.45853       -9.48471
H         -9.42928       14.75999       -9.43407
H         -7.55681       15.19948      -11.26565
H        -10.88811       12.43610       -7.73655
H         -9.17044       12.52555       -5.18476
H        -12.34809       13.94937       -6.57865
H        -13.59103       13.24870       -2.53858
H        -10.56390       10.35515        0.27272
H         -9.32889       10.87731       -3.80444
H        -12.64615       13.13898       -0.38054
H        -13.46645       10.20024        0.06721
H        -14.27201       11.72228        0.75335
