78

C          1.12784        5.06522        8.04250
C          0.29106        6.03549        8.77960
N         -0.71961        6.55054        8.13754
C         -0.64227        5.94907        6.92214
C          0.49371        5.06878        6.87307
C          0.57813        4.44862        5.51816
S          1.88581        3.64764        4.87257
C         -0.71931        4.89928        4.89062
C         -1.31895        5.87824        5.78160
N         -2.45807        6.38290        5.24971
C         -2.58207        5.70299        4.14587
C         -1.54223        4.67332        3.85579
C         -1.56539        3.69135        2.76990
C         -2.06820        3.91555        1.47300
C         -2.00960        2.91135        0.42423
N         -2.53419        3.16683       -0.79345
C         -3.13040        4.36327       -0.98712
C         -3.17612        5.31866        0.00248
N         -2.63411        5.11377        1.22491
F         -3.79170        6.48855       -0.21718
F         -3.70152        4.59599       -2.17636
C         -1.42203        1.64525        0.62405
C         -0.96557        1.36321        1.94462
C         -1.11400        2.37405        3.04128
N         -0.82151        1.86607        4.25143
S         -0.17276        0.36796        4.01404
N         -0.33348        0.26134        2.38116
C         -1.14704        0.71265       -0.50080
C         -1.10872       -0.63013       -0.50896
C         -1.46305       -1.54963        0.54624
C         -0.58050       -2.55290        0.64691
C          0.45910       -2.48062       -0.37028
S         -0.16227       -1.50132       -1.71799
C          1.76807       -2.76374       -0.19860
C          2.40283       -3.00919        1.08510
C          3.70642       -2.67689        1.09233
C          4.21276       -2.23443       -0.19892
S          3.00775       -2.58348       -1.42447
C          5.42214       -1.67370       -0.38950
C          6.10488       -1.24922       -1.64654
C          7.49227       -1.41987       -1.85470
C          8.09787       -1.27511       -3.16587
N          9.42519       -1.44220       -3.33395
C         10.16995       -1.71837       -2.24273
C          9.60343       -1.86309       -0.99625
N          8.27089       -1.73700       -0.79268
F         10.37850       -2.13422        0.06322
F         11.49232       -1.85781       -2.40858
C          7.34677       -0.98718       -4.31750
C          5.99294       -0.62661       -4.10787
C          5.38912       -0.67374       -2.73298
N          4.17380       -0.10240       -2.69996
S          3.72043        0.19204       -4.25899
N          5.08922       -0.29997       -5.04553
C          7.84439       -1.20849       -5.67531
C          8.65201       -2.41028       -6.06073
N          8.86190       -2.61250       -7.32739
C          8.22687       -1.56090       -7.89688
C          7.66805       -0.66928       -6.89051
C          7.01653        0.48076       -7.61299
S          6.47538        1.94858       -7.05184
C          7.10364        0.03788       -9.03951
C          7.87744       -1.17152       -9.11498
N          7.97328       -1.59625      -10.40178
C          7.28551       -0.69949      -11.05000
C          6.69323        0.39548      -10.25137
H          1.98843        4.53000        8.39092
H          0.55055        6.28209        9.82016
H         -3.41771        5.85294        3.44846
H         -0.79690        1.23410       -1.39352
H         -2.28120       -1.37839        1.23033
H         -0.60239       -3.30616        1.42163
H          1.85688       -3.29772        1.97044
H          4.32351       -2.70047        1.97999
H          6.06621       -1.57363        0.48898
H          9.01755       -3.09265       -5.27994
H          7.12268       -0.71772      -12.13833
H          6.09343        1.21433      -10.59342
