89

C          2.54948        0.86779       -3.08746
C          2.18354        1.68274       -2.07543
C          1.28928        1.09801       -1.10771
S         -0.41797        1.14265       -1.35318
C         -0.78963        0.26487        0.09207
C         -2.17157        0.02791        0.49843
S         -3.43342       -0.20452       -0.65533
C         -4.72218       -0.30540        0.51081
C         -6.13577       -0.48022        0.04573
C         -6.62822        0.13688       -1.17337
C         -8.09799       -0.05779       -1.68262
C         -9.07127       -0.82553       -0.95171
C        -10.45399       -0.98815       -1.47210
C        -11.26435       -0.08025       -2.17840
C        -12.54754       -0.61256       -2.46825
C        -12.65696       -1.90674       -2.01403
S        -11.27291       -2.53033       -1.34956
C        -13.94221       -2.40064       -2.32164
S        -14.77217       -3.82245       -2.08083
C        -16.13521       -3.17968       -2.93632
C        -15.92842       -1.87776       -3.37513
C        -14.64539       -1.42475       -2.99832
C        -13.80852       -0.22731       -3.12396
C        -14.13996        0.93937       -3.70318
C        -13.22282        2.02984       -3.74344
N        -12.48286        2.92279       -3.76943
C        -15.41333        1.15945       -4.31113
N        -16.44517        1.33513       -4.80203
C         -8.54771       -1.38079        0.24870
C         -9.29636       -2.09384        1.16053
S         -8.37064       -2.70600        2.45649
C         -6.94280       -2.00189        1.83754
C         -7.14744       -1.23811        0.71064
N         -8.30314        0.55779       -2.86187
S         -6.90193        1.31773       -3.28570
N         -5.93434        0.93400       -2.00702
C         -4.14677       -0.23550        1.77418
N         -4.86090       -0.33358        2.93070
C         -4.06527       -0.39091        4.04221
C         -2.68090       -0.23911        4.03453
N         -1.94836       -0.02059        2.90717
C         -2.69962       -0.07720        1.76882
C         -1.91641       -0.28748        5.30807
O         -0.70693       -0.10567        5.37732
C         -2.67376       -0.52520        6.55533
C         -3.99570       -0.69794        6.55750
C         -4.78005       -0.67457        5.30967
O         -5.98273       -0.90204        5.35591
C          0.38963       -0.11849        0.70706
N          0.45229       -0.93090        1.80031
C          1.73569       -1.13660        2.22302
C          2.86858       -0.59734        1.60722
N          2.84445        0.18186        0.48538
C          1.57060        0.40248        0.04958
C          4.22197       -0.89485        2.13620
O          5.23815       -0.35107        1.72113
C          4.33503       -1.90854        3.20113
C          3.25662       -2.44703        3.77041
C          1.88611       -2.07211        3.36575
O          0.93754       -2.58949        3.94326
C          2.72518        3.12697       -2.03979
C          3.56041        3.44104       -0.75875
C          3.05198        4.57955        0.14429
C          1.56494        4.69639        0.12787
C          0.72154        5.00058        1.17325
S         -0.91995        5.03313        0.68491
C         -0.50663        4.67062       -0.93556
C          0.85123        4.50590       -1.09455
C          1.59877        4.14662       -2.33736
H          2.19423       -0.15662       -3.16672
H          3.21931        1.19837       -3.87583
H        -10.92186        0.91152       -2.45127
H        -17.01393       -3.79489       -3.07562
H        -16.67932       -1.33152       -3.93434
H        -10.34809       -2.33119        1.16808
H         -6.04420       -2.19885        2.39504
H         -2.09487       -0.54108        7.47280
H         -4.55340       -0.86550        7.47307
H          5.34124       -2.18648        3.49626
H          3.33569       -3.19234        4.55429
H          3.43164        3.21840       -2.87922
H          4.58366        3.69969       -1.06576
H          3.68277        2.54226       -0.14669
H          3.46944        5.53027       -0.21285
H          3.42511        4.43683        1.16507
H          0.98152        5.20606        2.20248
H         -1.28076        4.57135       -1.68432
H          2.05078        5.06420       -2.73676
H          0.92079        3.76802       -3.11155
