96

C         -6.51000       -0.64335        6.61218
S         -5.66952       -1.65300        5.52003
C         -6.78596       -2.96670        5.72905
C         -7.75370       -2.59416        6.64866
C         -7.59340       -1.29185        7.13716
O         -8.41353       -0.72206        8.02858
C         -9.45269       -1.44707        8.48693
O        -10.23056       -0.99570        9.31899
C         -9.65486       -2.90094        7.92944
O        -10.60280       -3.57350        8.31779
O         -8.76940       -3.38422        7.03326
C         -6.59007       -4.22743        4.97599
C         -6.00051       -4.22726        3.69612
C         -5.85941       -5.41704        2.98643
C         -6.27109       -6.63642        3.55325
C         -6.82959       -6.66879        4.82021
C         -6.99271       -5.46486        5.52200
C         -5.97829       -7.71409        2.63569
C         -5.38185       -7.19066        1.46987
C         -5.24231       -5.65350        1.59512
C         -3.75061       -5.23096        1.53502
C         -2.84750       -5.82873        2.61509
C         -6.08447       -4.97904        0.47153
C         -6.05945       -3.45200        0.40630
C         -4.98024       -8.03393        0.43077
C         -5.17696       -9.42110        0.55627
C         -5.75662       -9.92382        1.74244
C         -6.16764       -9.07675        2.77772
C         -4.70371      -10.32822       -0.51230
C         -5.24888      -11.52982       -0.76161
C         -4.78320      -12.45795       -1.77945
C         -5.03248      -13.77844       -1.78566
C         -4.69721      -14.69112       -2.85642
C         -5.29560      -15.88890       -2.74257
C         -6.15624      -15.99075       -1.57495
S         -5.84700      -14.63207       -0.49799
C         -7.16985      -16.85601       -1.38568
C         -7.62906      -17.87311       -2.31320
C         -8.89799      -18.25493       -2.09307
C         -9.50921      -17.57836       -0.96820
S         -8.30298      -16.73111       -0.03752
C        -10.82552      -17.53972       -0.70993
C        -11.43209      -16.73274        0.36653
C        -11.81324      -15.39058        0.21051
C        -12.36821      -14.62292        1.29759
N        -12.74454      -13.34674        1.05824
C        -12.52406      -12.78820       -0.15678
C        -11.97796      -13.52043       -1.17723
N        -11.64588      -14.82682       -1.01093
C        -11.72607      -12.96828       -2.47163
N        -11.53643      -12.49538       -3.51806
C        -12.87848      -11.40270       -0.27918
N        -13.15780      -10.28544       -0.38687
C        -12.52793      -15.14651        2.60874
C        -12.13492      -16.50615        2.79751
C        -11.59699      -17.31858        1.64697
N        -11.31376      -18.58827        1.98468
S        -11.64322      -18.74597        3.59573
N        -12.15840      -17.21222        3.94078
C        -13.06254      -14.36371        3.75655
S        -12.58731      -12.69967        3.96292
C        -13.61887      -12.46638        5.30227
C        -14.20457      -13.64625        5.66764
C        -13.90195      -14.70972        4.80551
O        -14.40317      -15.94050        4.99634
C        -15.08390      -16.18463        6.13562
O        -15.39767      -17.32141        6.46821
C        -15.52034      -14.96525        7.01967
O        -16.30833      -15.12735        7.94335
O        -15.00808      -13.75195        6.73387
H         -6.16418        0.36159        6.81338
H         -5.64821       -3.30297        3.25250
H         -7.13322       -7.60680        5.27430
H         -7.42789       -5.51634        6.51750
H         -3.66475       -4.14126        1.61591
H         -3.33406       -5.50351        0.55637
H         -3.14798       -5.50222        3.61535
H         -1.81598       -5.49537        2.46052
H         -2.84736       -6.92214        2.59187
H         -7.13375       -5.29328        0.55548
H         -5.73861       -5.34231       -0.50541
H         -6.70127       -3.10537       -0.41069
H         -5.05381       -3.06726        0.21524
H         -6.44598       -2.98825        1.31480
H         -4.51569       -7.62093       -0.45994
H         -5.87889      -10.99532        1.88685
H         -6.60617       -9.49478        3.67736
H         -3.84442       -9.98676       -1.08242
H         -6.11705      -11.85236       -0.18973
H         -4.24599      -12.01726       -2.61600
H         -4.07049      -14.40765       -3.69048
H         -5.19963      -16.67538       -3.47793
H         -7.03380      -18.23393       -3.14044
H         -9.43545      -18.95348       -2.71984
H        -11.52927      -18.06111       -1.35130
H        -13.71607      -11.49387        5.76731
