96

C        -13.56685       -1.56017        7.33413
C        -14.40288       -1.92356        8.33875
C        -14.80685       -3.27572        8.55290
N        -15.14271       -4.37631        8.71536
C        -14.88196       -0.97978        9.29976
N        -15.26548       -0.20994       10.07565
C        -12.87030       -2.46757        6.36792
C        -11.81154       -1.75174        5.80103
C        -10.98994       -2.22234        4.78924
C        -11.22370       -3.52810        4.32239
C        -12.24902       -4.28664        4.91056
C        -13.09874       -3.77025        5.92975
S        -12.30299       -5.87217        4.21658
C        -11.02751       -5.52895        3.16320
C        -10.55792       -4.25019        3.27813
Br       -10.31307       -6.77240        1.95854
C        -11.73286       -0.39663        6.34730
O        -10.78580        0.35349        6.24289
C        -13.02480       -0.20074        7.06742
C        -13.59652        1.01286        7.15815
C        -13.07327        2.27854        6.64721
C        -12.95544        2.65572        5.34765
C        -13.35776        1.73376        4.22887
C        -12.53855        4.09157        5.00284
N        -11.73440        4.25284        3.77649
C        -12.27843        4.26537        2.49724
C        -12.67475        5.30220        1.74060
N        -13.28048        5.28787        0.48328
C        -14.46655        4.67100        0.15396
C        -15.22071        3.92843        1.04211
S        -16.71697        3.42584        0.39673
C        -16.39347        4.20154       -1.09153
C        -15.14663        4.79399       -1.12255
N        -14.60997        5.42057       -2.22503
C        -15.29410        5.70876       -3.40587
C        -15.41165        6.92738       -3.95871
C        -15.98060        7.24448       -5.26385
C        -17.16206        6.87934       -5.78873
C        -17.63586        7.22521       -7.11586
C        -18.80865        6.65865       -7.44843
C        -19.35291        5.80706       -6.41034
S        -18.32898        5.90294       -4.96390
C        -20.45919        5.04063       -6.44933
C        -21.48189        4.91846       -7.46826
C        -22.54525        4.18350       -7.08246
C        -22.43152        3.64140       -5.73843
S        -20.84084        3.96678       -5.13252
C        -23.39308        3.00309       -5.04248
C        -23.35135        2.47514       -3.67445
C        -22.30070        2.51866       -2.82061
C        -22.68505        1.90424       -1.59244
C        -21.95206        1.72088       -0.48430
C        -22.62282        1.05448        0.59743
C        -22.17926        0.71408        1.81946
C        -23.25990        0.05550        2.57527
C        -24.36459        0.00515        1.79406
C        -24.02642        0.62078        0.53117
C        -24.75513        0.81641       -0.58789
C        -24.07331        1.46782       -1.69886
C        -24.46482        1.80749       -2.94077
C        -23.13607       -0.47448        3.91902
C        -24.11167       -1.00241        4.65197
H        -10.21888       -1.58782        4.36252
H        -13.89800       -4.39569        6.30966
H         -9.75897       -3.83696        2.67369
H        -14.58183        1.12400        7.60669
H        -12.83217        2.99221        7.43505
H        -14.18388        1.07558        4.51550
H        -12.50908        1.11717        3.91546
H        -13.72859        2.27977        3.36424
H        -11.93178        4.48906        5.82753
H        -13.43639        4.71733        4.94285
H        -10.92618        3.63318        3.82890
H        -12.32798        3.26852        2.06630
H        -12.49835        6.31647        2.09377
H        -13.10193        6.14860       -0.03943
H        -14.98739        3.69251        2.06790
H        -17.13141        4.15251       -1.87955
H        -13.73243        4.95930       -2.48453
H        -15.68872        4.82277       -3.90198
H        -14.96651        7.77257       -3.43699
H        -15.33668        7.89232       -5.85656
H        -17.06998        7.86115       -7.78240
H        -19.28290        6.78314       -8.41143
H        -21.41221        5.40722       -8.42945
H        -23.41866        4.01653       -7.69818
H        -24.35792        2.86309       -5.52729
H        -21.31136        2.92020       -2.92562
H        -20.92355        2.04243       -0.39485
H        -21.18365        0.88025        2.20554
H        -25.32720       -0.40940        2.03061
H        -25.78771        0.51300       -0.68222
H        -25.43896        1.63822       -3.37000
H        -22.13699       -0.39335        4.35430
H        -25.13156       -1.10097        4.29083
H        -23.91179       -1.36128        5.65557
