130

C         -3.86205       -0.05060       -6.17394
C         -4.07214        0.93860       -7.12563
C         -4.00440        0.60167       -8.49750
C         -4.26176        1.64946       -9.44832
N         -4.46266        2.49226      -10.20494
C         -3.73841       -0.71921       -8.91606
C         -3.72016       -1.08700      -10.30400
N         -3.71749       -1.40778      -11.41800
C         -3.53214       -1.71468       -7.95993
C         -3.61016       -1.35530       -6.62330
C         -3.55242       -2.29123       -5.49456
O         -3.20097       -3.44775       -5.57700
C         -4.00402       -1.49926       -4.30308
C         -3.90699       -0.07385       -4.68379
C         -3.71303        0.97703       -3.84619
C         -3.48892        2.29858       -4.33245
N         -3.30864        3.36223       -4.75569
C         -3.61978        0.83219       -2.42526
N         -3.55815        0.70645       -1.27389
C         -4.58379       -2.03665       -3.21861
C         -4.76581       -3.46317       -2.94666
C         -5.96419       -4.10108       -3.29778
C         -6.13972       -5.42015       -2.90887
C         -5.12243       -6.11182       -2.21672
C         -3.92093       -5.50197       -1.91123
C         -3.75327       -4.16344       -2.26277
C         -5.58494       -7.43616       -1.89132
C         -6.89646       -7.60019       -2.36254
C         -7.34763       -6.34364       -3.11527
C         -8.66124       -5.73725       -2.54135
C         -8.61942       -5.28978       -1.07927
C         -7.54001       -6.68030       -4.62184
C         -6.28705       -7.18415       -5.34433
C         -7.59010       -8.78031       -2.13306
C         -7.01163       -9.80414       -1.35248
C         -5.68316       -9.59817       -0.90480
C         -4.95361       -8.44525       -1.20081
C         -7.78609      -11.02009       -0.97515
C         -7.18613      -12.29598       -0.83930
C         -7.93090      -13.41148       -0.44666
N         -7.20214      -14.59741       -0.34166
C         -5.94356      -14.40270       -0.62218
S         -5.54741      -12.83164       -1.11302
C         -9.31115      -13.26027       -0.20432
C         -9.93326      -12.01673       -0.36466
C         -9.18609      -10.89116       -0.72895
N         -9.93394       -9.71194       -0.80926
C        -11.19867       -9.93706       -0.56533
S        -11.59528      -11.54434       -0.17143
C        -10.10963      -14.43168        0.20346
C         -9.60125      -15.45448        0.90975
C        -10.32181      -16.64663        1.34141
C         -9.85866      -17.28628        2.50103
C        -10.50605      -18.42934        2.92407
C        -11.60842      -18.93356        2.20336
C        -12.04799      -18.33125        1.03754
C        -11.38718      -17.18768        0.59920
C        -12.07608      -20.13257        2.84436
C        -11.22884      -20.43479        3.92649
C        -10.20691      -19.30875        4.14741
C         -8.73239      -19.78234        4.21262
C         -8.19729      -20.47460        2.96361
C        -10.56460      -18.48261        5.42212
C        -10.60325      -19.27363        6.72565
C        -11.40449      -21.60656        4.64369
C        -12.46682      -22.45131        4.31707
C        -13.35959      -22.09434        3.28784
C        -13.15630      -20.93841        2.53274
C        -12.69422      -23.68621        5.07019
C        -12.28473      -24.91166        4.71219
C        -13.00308      -26.08662        5.30322
O        -13.62472      -26.14761        6.34153
C        -12.89575      -27.15297        4.28866
C        -13.52745      -28.38663        4.32646
C        -13.37905      -29.23278        3.21997
C        -12.64009      -28.80274        2.09484
C        -12.00676      -27.54143        2.08904
C        -12.10575      -26.72481        3.20725
C        -11.50633      -25.41051        3.57415
C        -10.30533      -24.96043        3.14521
C         -9.54610      -23.99535        3.86614
N         -8.85993      -23.29004        4.47070
C         -9.62028      -25.54388        2.05707
N         -9.08403      -26.00965        1.13494
C        -12.51342      -29.63030        0.92678
N        -12.40591      -30.27732       -0.02876
C        -13.99144      -30.53115        3.25895
N        -14.48036      -31.58050        3.31004
H         -4.31966        1.96048       -6.84941
H         -3.35501       -2.75145       -8.23954
H         -5.02315       -1.41531       -2.44225
H         -6.74707       -3.58238       -3.83992
H         -3.13495       -6.03983       -1.39343
H         -2.82848       -3.66484       -1.98378
H         -9.47953       -6.46198       -2.64635
H         -8.95265       -4.86383       -3.14059
H         -8.29473       -6.09252       -0.41180
H         -9.62009       -4.97826       -0.75750
H         -7.95622       -4.43026       -0.94108
H         -7.89931       -5.79141       -5.15560
H         -8.32287       -7.44320       -4.73082
H         -5.51019       -6.41394       -5.38099
H         -6.52991       -7.45159       -6.37689
H         -5.86707       -8.07367       -4.86505
H         -8.59443       -8.87656       -2.53422
H         -5.18110      -10.32757       -0.27752
H         -3.93023       -8.34454       -0.85832
H         -5.21452      -15.20047       -0.56112
H        -11.93665       -9.14475       -0.61115
H        -11.15798      -14.43356       -0.07911
H         -8.56460      -15.45325        1.23490
H         -9.00890      -16.89849        3.05538
H        -12.86716      -18.74319        0.45955
H        -11.69620      -16.73217       -0.33799
H         -8.59923      -20.46782        5.05815
H         -8.07790      -18.92437        4.41951
H         -8.79293      -21.34946        2.69750
H         -7.16872      -20.80886        3.14112
H         -8.18225      -19.80429        2.10107
H        -11.54592      -18.00430        5.29889
H         -9.84574      -17.65946        5.54178
H        -11.40316      -20.01719        6.70823
H        -10.81950      -18.61010        7.56757
H         -9.65594      -19.77987        6.92910
H        -10.71821      -21.85484        5.44730
H        -14.22960      -22.70993        3.07120
H        -13.83745      -20.67339        1.73070
H        -13.38643      -23.56579        5.90428
H        -14.12147      -28.67248        5.19259
H        -11.45884      -27.23434        1.20067
