120

C          2.07243        1.85793       -9.09098
C          2.68283        2.61822      -10.08336
C          4.05123        2.93384       -9.97039
C          4.65746        3.70951      -11.01950
N          5.12100        4.32776      -11.88360
C          4.79424        2.50662       -8.84704
C          6.15465        2.93307       -8.66973
N          7.23563        3.32713       -8.52375
C          4.18176        1.72796       -7.85145
C          2.82959        1.44338       -7.98667
C          1.95929        0.75635       -7.00892
O          2.34053       -0.00163       -6.14505
C          0.55173        1.04107       -7.45737
C          0.67427        1.38705       -8.89650
C         -0.20092        1.11272       -9.89388
C          0.12081        1.30672      -11.26984
N          0.42603        1.46737      -12.37792
C         -1.46064        0.50734       -9.63941
N         -2.48753        0.02130       -9.40685
C         -0.52609        1.12985       -6.65785
C         -0.52392        1.00643       -5.16973
N          0.46804        1.31123       -4.36975
C         -0.03237        1.07467       -3.12423
C         -1.41060        0.67327       -3.21243
C         -1.95475        0.46045       -1.84914
O         -3.07594        0.16427       -1.50317
C         -0.76806        0.71274       -1.00440
C          0.34424        1.07980       -1.84714
N          1.43958        1.31105       -1.07718
C          1.00193        1.08309        0.13143
C         -0.41857        0.70085        0.27450
C         -1.79434        0.59722       -4.47891
C         -3.05220        0.23497       -5.04027
C         -3.64896       -0.93832       -4.78531
C         -4.91474       -1.40436       -5.34164
C         -5.82040       -0.53661       -5.86870
C         -7.15343       -0.99993       -6.17873
C         -8.21976       -0.37378       -6.74097
C         -8.20046        0.80240       -7.70497
C         -8.14919        0.20275       -9.15027
N         -8.06321        1.16795      -10.25324
C         -9.35252        1.81114       -7.50388
N         -9.32428        2.95607       -8.42916
C         -9.34055       -1.24406       -6.38101
C        -10.62065       -0.97615       -6.06787
C        -11.49005       -2.03446       -5.38613
C        -10.96156       -3.45649       -5.54935
C         -9.67083       -3.70481       -5.82832
C         -8.83014       -2.55662       -5.99827
C         -7.51393       -2.39344       -5.84394
C         -6.48414       -3.33519       -5.50595
C         -5.25081       -2.85039       -5.27325
C        -12.91133       -1.95028       -5.85048
C        -13.95675       -2.23995       -5.05837
C        -15.31288       -2.17455       -5.63222
N        -15.66869       -1.34741       -6.58291
C        -16.97445       -1.64460       -6.77177
C        -17.40018       -2.67592       -5.86086
C        -18.83339       -2.97264       -6.12175
O        -19.58227       -3.73113       -5.54360
C        -19.15340       -2.06110       -7.24556
C        -17.97551       -1.28747       -7.56773
N        -18.24193       -0.44726       -8.60108
C        -19.48986       -0.71190       -8.87251
C        -20.15172       -1.73857       -8.04005
C        -16.39115       -3.07311       -5.09119
C        -16.26824       -4.12174       -4.12001
C        -17.28204       -4.64641       -3.41392
C        -17.08596       -5.67814       -2.41837
C        -17.97846       -6.60734       -2.05362
C        -17.74943       -7.41327       -0.80297
O        -16.72065       -7.55075       -0.17710
C        -19.07490       -7.95440       -0.43462
C        -19.39607       -8.72160        0.67400
C        -20.74565       -9.05314        0.87255
C        -21.73927       -8.52947        0.01294
C        -21.37770       -7.76392       -1.11176
C        -20.03301       -7.54828       -1.37467
C        -19.31440       -6.96561       -2.53802
C        -19.69458       -7.14694       -3.82904
C        -18.82115       -6.91682       -4.93318
N        -18.11153       -6.79506       -5.84343
C        -20.92744       -7.78176       -4.16422
N        -21.92426       -8.33345       -4.38203
C        -23.13650       -8.77030        0.24654
N        -24.27076       -8.93230        0.42039
C        -21.08710       -9.95711        1.93350
N        -21.34727      -10.72042        2.76538
H          2.12757        3.00642      -10.93515
H          4.72577        1.39001       -6.97127
H         -1.49256        1.40627       -7.06626
H          1.62407        1.15689        1.03615
H         -0.97496        0.47776        1.16287
H         -3.50719        0.96268       -5.70275
H         -3.17333       -1.64520       -4.10213
H         -5.65868        0.53338       -5.90493
H         -7.26078        1.35381       -7.55769
H         -9.03068       -0.42516       -9.32568
H         -7.27445       -0.45386       -9.24063
H         -8.81243        1.85251      -10.10938
H         -7.22639        1.73666      -10.12607
H         -9.31917        2.19629       -6.47828
H        -10.31922        1.32130       -7.64042
H         -9.40298        3.82325       -7.89775
H        -10.17585        2.93140       -8.99673
H        -11.02865        0.02415       -6.13042
H        -11.46678       -1.80756       -4.30856
H        -11.64229       -4.28718       -5.39232
H         -9.27189       -4.70611       -5.92642
H         -6.69751       -4.39671       -5.49336
H         -4.44129       -3.53989       -5.05061
H        -13.07232       -1.66328       -6.88826
H        -13.83452       -2.55208       -4.02816
H        -20.06184       -0.22056       -9.67397
H        -21.16045       -2.10354       -8.10068
H        -15.26942       -4.53379       -3.98935
H        -18.29922       -4.28489       -3.54862
H        -16.14607       -5.61364       -1.86670
H        -18.61572       -9.06905        1.34858
H        -22.15428       -7.37014       -1.76558
