152

C          6.38581      -16.58230       -7.60201
S          4.77672      -16.19298       -7.16438
C          5.18338      -15.97187       -5.49071
C          6.53731      -16.17611       -5.30320
C          7.21773      -16.53685       -6.51547
C          8.58488      -16.78691       -6.60464
C          9.25360      -16.66290       -5.35500
C         10.74033      -16.90939       -5.33477
C          8.57538      -16.32219       -4.12335
C          9.32983      -16.21325       -2.81819
C          7.19605      -16.02304       -4.07603
C          4.13083      -15.59570       -4.60790
C          4.11728      -15.95505       -3.31335
C          3.11058      -15.55617       -2.32629
C          1.98408      -14.82385       -2.69638
C          1.02112      -14.54616       -1.74845
C          1.19718      -14.92911       -0.40436
C          2.32756      -15.61907       -0.00814
C          3.28243      -15.93668       -0.97792
C          0.06899      -14.45922        0.36043
C         -0.82079      -13.78080       -0.50450
C         -0.29045      -13.79138       -1.94821
C         -0.05712      -12.35911       -2.49360
C          0.93480      -11.50412       -1.70327
C         -1.28582      -14.60154       -2.83499
C         -0.95896      -14.73201       -4.32250
C         -1.99490      -13.23075       -0.02307
C         -2.28250      -13.36561        1.34250
C         -1.38835      -14.02977        2.20303
C         -0.20417      -14.58026        1.71366
C         -3.54502      -12.82216        1.85792
C         -4.61741      -13.64933        1.82774
C         -5.92652      -13.12771        2.16246
C         -7.15815      -13.70407        2.15049
C         -7.62291      -15.13823        1.92009
C         -7.85928      -15.43902        0.41687
N         -8.94376      -14.65796       -0.19155
C         -6.67357      -16.20120        2.54836
N         -7.12264      -17.58579        2.37228
C         -8.08040      -12.57979        2.36878
C         -9.41707      -12.50456        2.27522
C        -10.16927      -11.18960        2.41906
C         -9.28525      -10.00438        2.78655
C         -7.94719      -10.08322        2.88715
C         -7.32927      -11.35201        2.61271
C         -6.03855      -11.68234        2.48449
C         -4.85404      -10.86396        2.58973
C         -3.66664      -11.42355        2.29232
C        -11.23868      -11.35376        3.45613
C        -12.55012      -11.17372        3.23479
C        -13.56078      -11.36803        4.28059
C        -14.83995      -11.80588        3.91628
C        -15.78353      -11.99943        4.91644
C        -15.47074      -11.75781        6.27083
C        -14.22130      -11.29821        6.63814
C        -13.27289      -11.09374        5.63573
C        -16.62180      -12.06159        7.08665
C        -17.68551      -12.46688        6.25879
C        -17.23184      -12.48338        4.79252
C        -18.08244      -11.53022        3.91036
C        -18.07233      -10.05684        4.31287
C        -17.29927      -13.91705        4.18994
C        -16.44121      -14.98060        4.87517
C        -18.93107      -12.78442        6.79492
C        -19.11436      -12.76595        8.18914
C        -18.01404      -12.37962        8.99801
C        -16.77814      -12.01010        8.45574
C        -20.42292      -13.11539        8.80775
S        -20.87955      -12.27501       10.25284
C        -22.37238      -13.11130       10.45774
C        -22.56826      -13.95671        9.37237
C        -21.44067      -13.98815        8.45358
C        -21.41543      -14.82900        7.32787
C        -22.59636      -15.59769        7.13964
C        -22.66575      -16.47010        5.90553
C        -23.71290      -15.55167        8.05311
C        -24.92967      -16.41368        7.80037
C        -23.71334      -14.74232        9.21969
C        -23.22394      -12.83530       11.56655
C        -22.77651      -12.48351       12.78284
H          6.62271      -16.80996       -8.63126
H          9.09606      -17.03960       -7.52505
H         11.14277      -16.98932       -6.34943
H         10.95604      -17.84218       -4.80574
H         11.25479      -16.07646       -4.84547
H         10.02608      -17.04720       -2.69473
H          8.64471      -16.25268       -1.96177
H          9.87041      -15.26396       -2.77863
H          6.73305      -15.70109       -3.15410
H          3.33190      -15.00195       -5.03911
H          4.88625      -16.60798       -2.91269
H          1.84207      -14.46472       -3.70626
H          2.48031      -15.91254        1.02545
H          4.17138      -16.48445       -0.67068
H         -1.01344      -11.82376       -2.53645
H          0.31738      -12.40708       -3.52363
H          0.63198      -11.38705       -0.65917
H          0.99658      -10.50477       -2.14650
H          1.94280      -11.92996       -1.72658
H         -2.27955      -14.13922       -2.77198
H         -1.39971      -15.61672       -2.42998
H         -0.95396      -13.76104       -4.82546
H         -1.72021      -15.34840       -4.81325
H         -0.00304      -15.22669       -4.50182
H         -2.68342      -12.71932       -0.68941
H         -1.62296      -14.12384        3.26168
H          0.47970      -15.09290        2.38202
H         -4.51687      -14.65768        1.45097
H         -8.58019      -15.26606        2.44654
H         -8.12272      -16.49254        0.27686
H         -6.93535      -15.26074       -0.14464
H         -8.81808      -13.67300        0.03563
H         -8.86240      -14.71814       -1.20514
H         -6.56017      -16.00668        3.62149
H         -5.68044      -16.15569        2.10318
H         -8.03487      -17.71716        2.80622
H         -6.47758      -18.21712        2.84662
H        -10.01246      -13.38188        2.03943
H        -10.62246      -10.96207        1.44415
H         -9.77819       -9.05204        2.96449
H         -7.34405       -9.22296        3.15063
H         -4.93023       -9.82769        2.89439
H         -2.75390      -10.83735        2.35087
H        -10.87899      -11.66022        4.43662
H        -12.91427      -10.90298        2.24628
H        -15.09008      -12.01163        2.88022
H        -13.97008      -11.09774        7.67330
H        -12.29481      -10.71941        5.92671
H        -19.12590      -11.87136        3.90350
H        -17.73459      -11.59083        2.87056
H        -18.49860       -9.90643        5.30871
H        -18.67373       -9.47823        3.60364
H        -17.06204       -9.63729        4.29883
H        -16.99642      -13.88265        3.13477
H        -18.33980      -14.26764        4.19788
H        -15.37502      -14.74096        4.81720
H        -16.58233      -15.94570        4.37639
H        -16.71339      -15.10911        5.92639
H        -19.74406      -13.02465        6.11989
H        -18.10519      -12.35101       10.08204
H        -15.96807      -11.70007        9.10663
H        -20.58407      -14.91567        6.64194
H        -21.70891      -16.48974        5.37294
H        -23.42165      -16.08192        5.21495
H        -22.90797      -17.50229        6.17523
H        -25.32220      -16.24032        6.79354
H        -25.73725      -16.18607        8.50442
H        -24.67101      -17.47062        7.91771
H        -24.54855      -14.74048        9.91130
H        -24.29854      -12.94823       11.42862
H        -21.72061      -12.37941       13.02026
H        -23.47796      -12.29943       13.58999
