140

C          3.81485        2.28267       -1.00229
C          2.85480        1.38508       -1.32858
C          2.82992        0.82133       -2.63857
N          2.82960        0.37395       -3.68319
C          2.00134        0.81065       -0.35222
N          1.33959        0.32997        0.47951
C          5.00084        2.75238       -1.72298
C          6.03684        2.94335       -0.78883
C          7.25336        3.51530       -1.10649
C          7.41520        3.96784       -2.41682
C          6.36450        3.79755       -3.37484
C          5.16095        3.16358       -3.02628
C          6.52060        4.32662       -4.65773
C          7.68226        5.01873       -4.99911
C          8.70827        5.17817       -4.06895
C          8.57954        4.65033       -2.78561
C          5.52564        2.71129        0.57588
O          6.15743        2.71566        1.60698
C          4.03536        2.65384        0.37841
C          3.32854        3.39463        1.23545
C          2.19161        4.32218        1.07384
C          1.25841        4.60842        2.07546
C          1.37597        4.35696        3.56426
O          0.28252        4.39294        4.11748
C          2.63545        4.18417        4.35610
C          3.86816        4.61847        3.86631
S          5.21509        3.88110        4.60948
C          4.24013        3.43765        5.90445
C          2.87575        3.71529        5.75260
C          2.09964        3.43228        6.99335
O          2.70967        3.00818        7.98482
C          0.65932        3.63215        7.25136
C         -0.11315        4.58640        6.61809
C         -1.50140        4.59914        6.76577
C         -2.09950        3.81578        7.74417
C         -1.30457        3.01930        8.56054
C          0.06068        2.90098        8.29283
C          0.05344        5.25310        1.67494
C         -0.10651        5.83763        0.41819
C          0.96796        5.87888       -0.45868
C          2.09798        5.09603       -0.11272
C          0.86563        6.62008       -1.73983
S          1.82536        6.06067       -3.07729
C          1.10041        7.12709       -4.20233
C          0.05809        7.78599       -3.59001
C          0.07606        7.68308       -2.16105
C         -0.71817        8.51701       -1.35201
C         -1.57135        9.40975       -2.08400
C         -2.35486       10.41406       -1.26801
C         -1.68406        9.36994       -3.52271
O         -2.62970       10.17045       -4.14369
C         -3.04580        9.68964       -5.43705
C         -0.84641        8.56382       -4.31058
C          1.60474        7.17729       -5.53219
C          1.54567        8.31089       -6.25632
C          1.85209        8.39762       -7.69167
C          2.32818        9.56047       -8.32451
C          2.87707       10.70707       -7.51262
O          3.54182       10.44235       -6.51497
C          2.53844       12.10378       -7.83902
C          1.38853       12.44645       -8.53260
S          1.08411       14.12093       -8.55298
C          2.51506       14.44331       -7.68876
C          3.26504       13.31025       -7.41069
C          4.62773       13.39058       -6.83382
O          5.51286       12.61286       -7.18144
C          4.99913       14.51868       -5.90716
C          6.29264       15.07006       -5.95982
C          6.67157       16.09079       -5.07571
C          5.76758       16.56253       -4.12591
C          4.48353       16.02313       -4.06576
C          4.10062       15.00542       -4.94858
C          2.39580        9.57377       -9.72859
C          2.07257        8.42435      -10.48086
C          1.64846        7.24579       -9.85609
C          1.51535        7.27699       -8.47277
C          1.53107        5.97664      -10.61236
C          0.75764        4.89175      -10.39838
C          0.81116        3.56680      -11.07548
C          1.16360        3.31582      -12.35988
C          1.06245        2.02989      -12.95229
N          0.97777        0.97332      -13.44841
C          1.59508        4.34341      -13.25182
N          1.94858        5.18483      -13.96962
C          0.20057        2.57646      -10.13272
C         -0.43046        3.28886       -9.10746
C         -0.23926        4.72871       -9.28060
O         -0.82429        5.56983       -8.63121
C         -1.11199        2.70126       -8.05346
C         -1.16921        1.31008       -8.00427
C         -0.52943        0.54398       -9.01872
C          0.15987        1.18863      -10.07513
C         -0.59696       -0.85503       -8.94038
C         -1.27381       -1.48278       -7.89097
C         -1.89597       -0.72438       -6.90255
C         -1.84440        0.66611       -6.95827
H          7.99975        3.69000       -0.33640
H          4.34605        3.08380       -3.73962
H          5.72617        4.23659       -5.39406
H          7.77818        5.45138       -5.99044
H          9.60155        5.73494       -4.33605
H          9.38393        4.80575       -2.06890
H          3.71822        3.25057        2.21879
H          4.09095        5.15422        2.95547
H          4.72740        3.01856        6.77699
H          0.35116        5.33149        5.98614
H         -2.10055        5.23768        6.12226
H         -3.17312        3.86451        7.89808
H         -1.74107        2.48605        9.39975
H          0.66732        2.25885        8.93071
H         -0.79260        5.33440        2.36015
H         -1.06673        6.28976        0.17312
H          2.95936        5.11831       -0.77850
H         -0.67287        8.53414       -0.27065
H         -2.05947       11.43667       -1.52624
H         -2.14909       10.29010       -0.19660
H         -3.43063       10.28539       -1.40879
H         -3.93629       10.23579       -5.75698
H         -3.30755        8.62401       -5.39410
H         -2.27683        9.86144       -6.20316
H         -0.89276        8.53365       -5.38724
H          2.03216        6.26794       -5.94381
H          1.18196        9.23949       -5.82214
H          0.66355       11.78797       -8.99172
H          2.75488       15.47304       -7.45999
H          7.01945       14.70515       -6.68361
H          7.67608       16.50881       -5.11565
H          6.06671       17.33845       -3.42331
H          3.78286       16.38318       -3.31571
H          3.10295       14.58542       -4.85787
H          2.73989       10.45977      -10.25758
H          2.19144        8.45706      -11.56345
H          1.14693        6.39829       -7.95794
H          2.28586        5.94298      -11.39541
H         -1.57190        3.32069       -7.28813
H          0.65665        0.56970      -10.81564
H         -0.12245       -1.47442       -9.69892
H         -1.31369       -2.56779       -7.84445
H         -2.42033       -1.21552       -6.08631
H         -2.33502        1.24219       -6.17585
