73

C         -0.48793       -5.33035        5.89673
N         -0.18624       -4.76331        4.70728
N         -0.69406       -5.24392        3.45630
C         -1.52617       -6.31352        3.33421
C         -1.88324       -6.96081        4.54062
C         -1.34342       -6.44493        5.85397
N         -1.76619       -7.15028        6.91663
S         -2.74206       -8.35499        6.32893
N         -2.67482       -8.03937        4.70294
C         -1.99805       -6.71108        2.01445
C         -3.18742       -7.34172        1.63193
C         -3.23266       -7.55428        0.23610
C         -2.09237       -7.08634       -0.37361
S         -0.97578       -6.40027        0.63958
C         -2.15982       -7.36843       -1.74981
C         -3.33659       -8.02456       -2.01934
C         -4.10729       -8.15007       -0.77900
C         -5.33660       -8.67462       -0.61489
C         -6.07149       -9.20624       -1.70981
N         -6.66541       -9.63986       -2.60933
C         -5.97031       -8.71046        0.65731
N         -6.48833       -8.73658        1.69482
C         -3.41105       -8.40401       -3.37949
C         -2.25704       -8.02421       -4.07517
S         -1.17244       -7.12558       -3.05395
C         -1.91712       -8.29440       -5.45778
C         -0.67162       -8.45896       -6.03392
C         -0.73280       -8.71309       -7.45538
N          0.37609       -8.88106       -8.23394
C          1.53427       -8.80251       -7.50869
C          2.78764       -8.96264       -8.28574
O          2.80245       -9.14946       -9.49575
C          4.06930       -8.88449       -7.55720
C          4.12002       -8.68848       -6.23972
C          2.89659       -8.53666       -5.43106
O          2.99881       -8.37961       -4.22096
C          1.59087       -8.58519       -6.13170
N          0.49808       -8.40609       -5.33543
C         -2.02916       -8.79504       -7.92394
S         -3.14434       -8.46914       -6.64986
C         -2.51802       -9.15394       -9.23789
C         -3.68629       -8.71403       -9.86834
C         -3.90377       -9.40504      -11.08077
C         -2.88785      -10.29615      -11.33734
S         -1.68917      -10.34590      -10.19533
C         -3.18465      -11.00396      -12.51732
C         -4.39047      -10.56473      -13.01322
C         -4.91046       -9.50646      -12.14110
C         -6.05467       -8.80633      -12.26711
C         -6.43952       -7.82667      -11.30966
N         -6.75448       -7.03817      -10.51785
C         -6.93862       -9.01061      -13.36204
N         -7.66145       -9.17735      -14.25367
C         -4.77068      -11.30074      -14.15800
C         -3.82890      -12.28962      -14.46535
S         -2.47914      -12.24020      -13.36513
C         -3.83677      -13.30626      -15.50978
N         -3.19402      -14.48772      -15.29876
N         -3.16061      -15.56383      -16.24548
C         -3.77125      -15.50951      -17.45010
C         -4.46045      -14.31961      -17.74284
C         -4.50224      -13.17995      -16.75127
N         -5.20538      -12.12738      -17.21274
S         -5.75467      -12.53198      -18.72315
N         -5.13201      -14.06112      -18.87758
H         -0.06592       -4.90584        6.79472
H         -3.95189       -7.62365        2.34650
H         -4.21723       -8.96187       -3.84087
H          4.96870       -8.99671       -8.15345
H          5.06076       -8.63319       -5.70201
H         -4.34315       -7.97235       -9.42976
H         -5.68821      -11.17459      -14.72122
H         -3.69848      -16.36355      -18.10610
