87

C         -1.50303        0.32914       -1.16405
C         -0.81846       -0.38947       -0.23768
C          0.44584       -0.98356       -0.51383
N          1.47499       -1.46659       -0.74210
C         -1.28221       -0.54215        1.10423
N         -1.66365       -0.67439        2.19185
C         -1.05503        0.66775       -2.54889
C         -1.80440        1.76411       -2.98887
C         -1.70935        2.32270       -4.25499
C         -0.79381        1.74054       -5.15481
C         -0.02131        0.64971       -4.72379
C         -0.14166        0.09002       -3.42360
S          1.04432        0.11767       -5.97748
C          0.47004        1.28576       -7.05229
C         -0.51008        2.07884       -6.52100
Br         1.11143        1.47828       -8.80147
C         -2.75972        2.18734       -1.96115
O         -3.34843        3.24647       -1.94382
C         -2.76161        1.07818       -0.95544
C         -3.84154        0.74061       -0.23420
C         -5.08754        1.42558       -0.31689
C         -6.16891        1.20364       -1.15474
O         -6.08348        0.27930       -2.15066
C         -7.19934        0.27149       -3.03900
C         -7.30337        1.99200       -0.78984
C         -7.05116        2.84178        0.26950
S         -5.42246        2.68770        0.78904
C         -7.97734        3.75713        0.90106
C         -9.11879        4.33569        0.38269
C         -9.78072        5.21078        1.32958
N        -10.93942        5.87757        1.04140
C        -11.40839        5.58330       -0.21005
C        -12.73874        6.15308       -0.53158
O        -13.40396        6.77077        0.29189
C        -13.28135        5.92494       -1.88640
C        -12.64481        5.16321       -2.77721
C        -11.36265        4.50200       -2.46073
O        -10.84954        3.76405       -3.29307
C        -10.75916        4.75613       -1.12816
N         -9.58203        4.10491       -0.88289
C         -9.12186        5.28868        2.54620
S         -7.78398        4.21563        2.54858
C         -9.44222        6.07566        3.72248
C         -8.61342        6.61353        4.70006
O         -7.27058        6.39497        4.70483
C         -6.67470        6.51784        5.99530
C         -9.32591        7.45226        5.61188
C        -10.68194        7.49144        5.36655
S        -11.08431        6.38368        4.12376
C        -11.67372        8.21119        6.08770
C        -12.74884        8.79734        5.54621
C        -13.25108        8.97524        4.17953
C        -12.55935        9.41914        3.10439
C        -13.16945        9.73580        1.85690
N        -13.66787       10.04775        0.85371
C        -11.18293        9.79324        3.19735
N        -10.08324       10.16535        3.27359
C        -14.73371        8.96951        4.28045
C        -15.07267        9.21103        5.61522
C        -13.86956        9.16974        6.46744
O        -13.82425        9.34149        7.66718
C        -16.37251        9.42915        6.04657
C        -17.39330        9.41298        5.06690
C        -17.05909        9.08381        3.74220
C        -15.73252        8.81860        3.33208
S        -18.45613        9.08450        2.72716
C        -19.44833        9.59974        3.99002
C        -18.79443        9.70759        5.18810
Br       -21.26609        9.98989        3.76579
H         -2.34446        3.15697       -4.53988
H          0.45918       -0.77593       -3.16858
H         -1.00784        2.87408       -7.06334
H         -3.85418       -0.14617        0.39060
H         -6.96080       -0.38684       -3.87953
H         -7.40111        1.26843       -3.44834
H         -8.08772       -0.13111       -2.53992
H         -8.27250        1.92952       -1.26882
H        -14.23363        6.39457       -2.11062
H        -13.04993        4.97934       -3.76734
H         -5.64480        6.15408        5.93703
H         -7.20295        5.90771        6.73826
H         -6.63845        7.56538        6.31289
H         -8.86762        8.03212        6.40280
H        -11.55909        8.21759        7.17122
H        -16.58420        9.63976        7.09099
H        -15.52943        8.55207        2.29872
H        -19.27141       10.01368        6.11122
