87

C         -0.75919       -8.59571        7.77364
O         -0.11411       -9.30556        7.03380
C         -1.00938       -8.85686        9.19315
C         -1.45091       -7.68813        9.83064
C         -1.83196       -7.76992       11.16220
C         -1.76013       -9.01552       11.82092
C         -1.31955      -10.17238       11.14394
C         -0.92996      -10.09388        9.80859
Br        -1.26658      -11.89132       11.94896
Br        -2.30761       -9.05024       13.64214
C         -1.47962       -6.59387        8.81449
C         -1.40049       -5.26587        9.05681
C         -1.32392       -4.73542       10.37719
N         -1.25429       -4.32222       11.45923
C         -1.29937       -4.30967        8.00391
N         -1.22862       -3.54113        7.13873
C         -1.40647       -7.27275        7.49797
C         -2.00483       -6.93483        6.34195
C         -2.14703       -7.80108        5.21065
C         -2.30769       -9.17230        5.13065
C         -2.43817       -9.66404        3.79817
Cl        -2.56241      -11.35936        3.54058
C         -2.47349       -8.65078        2.85761
S         -2.26301       -7.12437        3.63752
C         -2.72682       -8.71511        1.42623
C         -2.23211       -7.93253        0.39755
Cl        -1.02250       -6.71656        0.48755
C         -2.85568       -8.21263       -0.85665
C         -3.77167       -9.24966       -0.81181
S         -3.83711       -9.86522        0.78799
C         -4.58859       -9.83560       -1.90887
C         -5.88311      -10.39235       -1.76148
C         -6.62597      -10.94443       -2.87154
N         -7.82360      -11.52322       -2.63379
C         -8.34319      -11.53875       -1.38193
C         -7.65793      -10.98503       -0.33925
N         -6.44761      -10.40792       -0.53267
C         -8.14118      -11.00135        1.00712
N         -8.54769      -11.03249        2.09424
C         -9.62978      -12.14952       -1.24302
N        -10.67583      -12.63899       -1.10451
C         -6.15007      -10.90966       -4.20406
C         -4.84824      -10.36101       -4.39421
C         -4.05008       -9.83651       -3.23015
N         -2.83112       -9.40767       -3.60349
S         -2.70644       -9.58520       -5.23671
N         -4.18982      -10.22827       -5.55980
C         -6.90262      -11.40408       -5.38789
C         -6.43558      -11.94794       -6.57137
C         -7.47027      -12.28521       -7.49715
Cl        -7.03883      -12.90455       -9.04144
C         -8.74255      -12.04519       -6.99902
S         -8.61457      -11.29416       -5.46303
C        -10.04098      -12.31233       -7.60296
C        -11.25290      -11.64347       -7.49383
Cl       -11.64357      -10.29994       -6.49849
C        -12.23650      -12.13822       -8.40670
C        -11.76843      -13.15982       -9.20988
S        -10.27505      -13.72349       -8.57233
C        -12.43328      -13.78511      -10.30586
C        -11.84800      -14.27025      -11.41184
C        -12.66359      -15.16547      -12.30061
O        -13.87073      -15.23786      -12.38357
C        -11.68217      -16.01417      -13.00474
C        -10.37539      -15.62577      -12.66762
C        -10.46483      -14.35604      -11.89814
C         -9.54847      -13.35680      -11.94806
C         -9.85306      -12.02823      -11.52548
N        -10.10137      -10.93848      -11.21290
C         -8.26058      -13.52611      -12.53133
N         -7.21202      -13.68559      -13.00309
C         -9.31220      -16.41450      -13.07987
C         -9.56742      -17.52684      -13.90198
C        -10.88341      -17.84678      -14.29628
C        -11.96242      -17.09385      -13.82524
Br       -11.28640      -19.29312      -15.45961
Br        -8.05741      -18.55209      -14.43660
H         -2.21484       -6.90928       11.70290
H         -0.61229      -10.96667        9.24426
H         -2.51276       -5.97636        6.25351
H         -2.32188       -9.82701        5.99250
H         -2.61818       -7.66427       -1.76060
H         -5.38425      -12.09311       -6.79075
H        -13.22238      -11.70115       -8.51975
H        -13.51492      -13.89011      -10.20386
H         -8.29135      -16.19910      -12.77692
H        -12.98996      -17.33967      -14.07842
