123

C         -4.00063        5.74351       -5.57964
C         -4.26186        4.54945       -6.16385
C         -3.84454        4.22977       -7.49579
N         -3.50734        3.97067       -8.56661
C         -5.03641        3.53660       -5.53085
N         -5.66556        2.71230       -5.00651
C         -3.33258        6.92120       -6.22501
C         -3.62815        8.05470       -5.46542
C         -3.17508        9.33557       -5.75457
C         -2.32147        9.49502       -6.86342
C         -1.99646        8.36586       -7.63130
C         -2.49968        7.06744       -7.33333
S         -0.92334        8.79478       -8.92100
C         -0.88795       10.41518       -8.44461
C         -1.66756       10.67607       -7.35150
Br         0.12296       11.72954       -9.31698
C         -4.40009        7.70923       -4.26795
O         -4.83776        8.51834       -3.47775
C         -4.47566        6.21014       -4.24429
C         -4.76787        5.51230       -3.13063
C         -5.12091        6.11703       -1.88489
S         -6.77298        6.26441       -1.46297
C         -6.45522        7.02388        0.06026
C         -5.08086        7.11195        0.25748
C         -4.32882        6.51572       -0.82374
C         -2.88628        6.33923       -0.72887
O         -2.14957        6.12905       -1.68491
C         -2.35469        6.35495        0.66119
C         -1.16955        5.67104        0.95161
C         -0.64797        5.69649        2.24848
C         -1.27873        6.43713        3.25906
C         -0.63579        6.56919        4.61936
C         -1.07127        5.50253        5.61040
C         -2.49453        7.07902        2.97494
C         -3.04271        7.02212        1.68343
C         -4.36917        7.64518        1.41908
O         -4.78583        8.53234        2.15233
C         -7.56802        7.29287        0.97038
S         -7.38591        7.02341        2.66577
C         -9.01183        7.43551        3.03342
C         -9.73154        7.42589        1.85069
C         -8.88399        7.66077        0.71048
C         -9.45042        8.17898       -0.53046
O         -8.78508        8.55628       -1.48683
C        -10.93128        8.34860       -0.56326
C        -11.51351        8.96272       -1.67702
C        -12.89293        9.18310       -1.72358
C        -13.72044        8.79977       -0.66028
C        -15.21326        9.03818       -0.66743
C        -15.65256       10.33048       -1.34606
C        -13.13917        8.14331        0.43360
C        -11.75123        7.93963        0.49396
C        -11.17835        7.35872        1.72958
O        -11.90478        6.85260        2.57840
C         -9.48751        7.65578        4.39568
S         -8.59963        7.09394        5.74959
C         -9.86374        7.40765        6.88248
C        -10.88307        8.09349        6.23330
C        -10.56627        8.40209        4.85952
C        -11.35021        9.38217        4.11116
O        -11.04464        9.79475        2.99657
C        -12.50206        9.99989        4.82238
C        -13.17696       11.06567        4.20724
C        -14.16505       11.76920        4.89997
C        -14.50900       11.40629        6.20725
C        -15.47495       12.24531        7.00644
C        -16.92596       11.85353        6.79650
C        -13.89265       10.28975        6.78924
C        -12.86839        9.60561        6.11525
C        -12.12116        8.55220        6.85150
O        -12.53161        8.13872        7.92900
C         -9.70392        7.11374        8.28511
C         -8.97808        6.10577        8.79632
C         -8.24402        5.01507        8.16119
C         -8.74457        4.10650        7.28919
C         -7.99799        2.97842        6.84804
N         -7.36837        2.06893        6.49672
C        -10.10686        4.14879        6.85923
N        -11.22037        4.15892        6.54178
C         -7.02562        4.80665        8.96585
C         -7.28624        5.28479       10.25315
C         -8.52873        6.10837       10.23211
O         -9.01132        6.70869       11.17022
C         -6.44908        5.01107       11.32526
C         -5.27449        4.25497       11.06627
C         -4.95441        3.92967        9.73694
C         -5.80909        4.22562        8.65669
S         -3.44007        3.11023        9.62945
C         -3.29513        3.04192       11.30759
C         -4.29929        3.70015       11.96897
Br        -1.89410        2.14512       12.16818
H         -3.43972       10.17252       -5.11404
H         -2.18776        6.23716       -7.95791
H         -1.76811       11.65425       -6.89590
H         -4.69861        4.43077       -3.10545
H         -0.65261        5.11104        0.17426
H          0.27231        5.15355        2.46025
H         -0.85891        7.56229        5.02845
H          0.45519        6.53498        4.50553
H         -2.14772        5.55148        5.80278
H         -0.55167        5.64711        6.56429
H         -0.83445        4.49728        5.24735
H         -3.01544        7.62843        3.75885
H        -10.89366        9.29594       -2.50825
H        -13.30226        9.67281       -2.60384
H        -15.57415        9.07480        0.36883
H        -15.70148        8.18311       -1.14855
H        -15.17105       11.20035       -0.88631
H        -16.73638       10.45366       -1.25720
H        -15.41153       10.33148       -2.41351
H        -13.76497        7.81693        1.26451
H        -12.89987       11.39090        3.20501
H        -14.63522       12.62993        4.42670
H        -15.33520       13.30140        6.74339
H        -15.22513       12.17150        8.07237
H        -17.21908       11.95663        5.74691
H        -17.57590       12.50067        7.39503
H        -17.10558       10.81754        7.10096
H        -14.16736        9.98864        7.80027
H        -10.14651        7.82945        8.97968
H         -6.70881        5.33224       12.33000
H         -5.52972        3.94789        7.64538
H         -4.36441        3.76474       13.04817
