87

C        -14.07542      -12.26934        2.39601
C        -12.94904      -12.32305        1.64267
C        -12.02500      -13.40781        1.69055
N        -11.27010      -14.28935        1.71453
C        -12.57862      -11.30426        0.71658
N        -12.25858      -10.47429       -0.02142
C        -14.51855      -13.29515        3.39977
C        -15.78037      -12.93729        3.87713
C        -16.47095      -13.61707        4.87540
C        -15.84687      -14.73959        5.45471
C        -14.59254      -15.13426        4.96765
C        -13.91597      -14.43040        3.93549
S        -14.02051      -16.53752        5.79973
C        -15.37746      -16.57518        6.80269
C        -16.28168      -15.58414        6.53183
Br       -15.61821      -17.84693        8.15653
C        -16.26401      -11.71744        3.23072
O        -17.37458      -11.25174        3.38518
C        -15.13498      -11.22271        2.37368
C        -15.16840       -9.99256        1.83708
C        -16.26107       -9.04064        1.95192
C        -16.15861       -7.80334        2.45731
C        -17.20831       -6.81133        2.42781
C        -16.75992       -5.56526        2.64802
C        -15.32391       -5.51039        2.86894
S        -14.70909       -7.13978        3.16071
C        -14.51805       -4.45074        2.67428
C        -14.90764       -3.15722        2.14197
C        -13.89258       -2.51627        1.53957
C        -12.64419       -3.24992        1.60062
S        -12.76110       -4.54979        2.75531
C        -11.58891       -3.02194        0.80446
C        -10.42872       -3.85397        0.78779
S        -10.38979       -5.17997       -0.29711
C         -8.78120       -5.65006        0.13870
C         -8.27158       -4.75301        1.06812
C         -9.23377       -3.77005        1.47883
N         -8.98430       -2.75571        2.45941
O         -9.72724       -2.72417        3.44476
O         -8.03500       -1.99908        2.23131
C         -6.93079       -4.81812        1.58589
N         -5.85397       -4.85755        2.00309
C         -8.15640       -6.78294       -0.48950
C         -8.86472       -7.84466       -0.91018
C         -8.30021       -8.97703       -1.62447
C         -8.98695       -9.73800       -2.49274
C         -8.41578      -10.75545       -3.34540
C         -9.18620      -11.03990       -4.41004
C        -10.41575      -10.26038       -4.45475
S        -10.66613       -9.48773       -2.89898
C        -11.19684      -10.01181       -5.52295
C        -10.96225      -10.45434       -6.88158
C        -11.75195       -9.85779       -7.78738
C        -12.69499       -8.91818       -7.21661
S        -12.59853       -8.93202       -5.47639
C        -13.50736       -8.13572       -7.94483
C        -14.40956       -7.19990       -7.38943
S        -16.04566       -7.55266       -6.93599
C        -16.39368       -5.90478       -6.48260
C        -15.27526       -5.17880       -6.69181
C        -14.20271       -5.88025       -7.19745
O        -13.06863       -5.16976       -7.46519
C        -13.50231       -3.91906       -7.06979
N        -12.54103       -2.87510       -7.21687
O        -12.45019       -2.07573       -6.27595
O        -11.92025       -2.82478       -8.28545
C        -14.81398       -3.85667       -6.58711
H        -17.44109      -13.26460        5.21513
H        -12.94089      -14.79178        3.63198
H        -17.20934      -15.44543        7.07407
H        -14.33035       -9.58667        1.27781
H        -17.21112       -9.36377        1.52976
H        -18.23425       -7.05550        2.19012
H        -17.38988       -4.68815        2.60780
H        -15.92467       -2.79147        2.14543
H        -13.99716       -1.57999        1.00858
H        -11.63658       -2.23284        0.05914
H         -7.08020       -6.75812       -0.64557
H         -9.94459       -7.87648       -0.76489
H         -7.23471       -9.15069       -1.49279
H         -7.43987      -11.18603       -3.16908
H         -8.89877      -11.73883       -5.18266
H        -10.18520      -11.15785       -7.14688
H        -11.68168      -10.03468       -8.85139
H        -13.47378       -8.19121       -9.02863
H        -17.37113       -5.61408       -6.12317
H        -15.33203       -2.97117       -6.24592
