72

N          7.18020      -17.55615       -1.89299
C          7.16028      -16.43946       -2.65073
C          8.23873      -15.58871       -2.73287
S          7.93775      -14.26731       -3.77701
C          6.35076      -14.82174       -4.10450
C          6.04616      -15.98532       -3.42827
N          4.85521      -16.64550       -3.50018
C          3.61570      -16.11969       -3.79388
C          2.44621      -16.77475       -3.85726
C          1.17331      -16.11711       -4.10055
C          0.59375      -15.19269       -3.31688
C         -0.63081      -14.48982       -3.62688
C         -0.87093      -13.44675       -2.81594
C          0.14812      -13.25454       -1.80092
S          1.23692      -14.64586       -1.79019
C          0.35275      -12.15479       -1.05238
C         -0.35483      -10.89126       -1.10318
C          0.32841       -9.87236       -0.54799
C          1.62357      -10.26488       -0.01713
S          1.68298      -12.00640        0.06751
C          2.61897       -9.40069        0.29089
C          3.96284       -9.72150        0.66841
S          4.63992      -11.28995        0.89100
C          6.24766      -10.75958        1.23200
C          6.21187       -9.40693        1.19136
C          4.98085       -8.85001        0.87457
O          4.92378       -7.48706        0.78818
C          6.24106       -7.19848        1.08906
N          6.55332       -5.80888        1.13414
O          7.05355       -5.39664        2.18904
O          6.34104       -5.15072        0.11049
C          7.06524       -8.29894        1.33743
C          7.28999      -11.72054        1.48964
S          7.26413      -13.24364        0.72620
C          8.58461      -13.87785        1.64397
C          8.78997      -15.32939        1.49419
O          9.78583      -16.00271        1.69955
O          7.67151      -15.99060        1.07440
C          9.21683      -12.82569        2.32835
C          8.39305      -11.62597        2.30706
N         10.37441      -12.76691        3.07311
C         11.32256      -13.73545        3.29143
C         11.82301      -14.54252        2.29583
S         12.84065      -15.77989        2.88389
C         12.89453      -15.04218        4.41996
C         12.07680      -13.93032        4.51086
N         12.09585      -13.17167        5.64620
C         11.14165      -12.38076        6.23623
C          9.82838      -12.30222        6.01749
H          7.95587      -17.76939       -1.26835
H          6.36096      -18.12652       -1.72556
H          9.19576      -15.67640       -2.23848
H          5.72989      -14.27016       -4.79504
H          4.81889      -17.59869       -3.15321
H          3.63147      -15.04065       -3.94111
H          2.41191      -17.85420       -3.74525
H          0.67911      -16.42525       -5.01960
H         -1.26394      -14.76289       -4.45949
H         -1.72196      -12.79009       -2.92014
H         -1.31423      -10.77723       -1.58626
H         -0.02288       -8.85028       -0.53894
H          2.40456       -8.33657        0.18231
H          8.11983       -8.27279        1.57001
H          6.93245      -15.39203        0.88705
H          8.60495      -10.73698        2.89115
H         10.51407      -11.94891        3.65711
H         11.55498      -14.52432        1.25069
H         13.52818      -15.47580        5.17912
H         12.93798      -13.23949        6.21992
H         11.56663      -11.77472        7.03631
H          9.33916      -12.94711        5.29400
H          9.20064      -11.60871        6.55890
