89

C         -2.55580       -1.76580        0.54908
C         -3.06849       -3.02224        0.55539
C         -2.26210       -4.19190        0.68593
N         -1.60420       -5.13941        0.78647
C         -4.46812       -3.27592        0.48912
N         -5.60817       -3.48317        0.42127
C         -1.12127       -1.39299        0.75333
C         -1.06261       -0.03751        1.08577
C          0.11692        0.65648        1.33115
C          1.33028       -0.06001        1.24785
C          1.28551       -1.42290        0.91648
C          0.06959       -2.10585        0.64912
S          2.87398       -2.10562        0.88840
C          3.58464       -0.63314        1.30701
C          2.68154        0.38587        1.44704
Br         5.42825       -0.41727        1.55882
C         -2.40448        0.55994        1.08969
O         -2.67427        1.66955        1.49895
C         -3.31866       -0.49175        0.52541
C         -4.50819       -0.20252       -0.02928
C         -5.04152        1.11254       -0.05326
O         -4.82277        2.01688       -1.09373
C         -5.84571        1.76576        0.84038
C         -6.51506        1.60022        2.09226
O         -6.52185        0.61857        2.81276
N         -7.15648        2.80788        2.29364
C         -6.92997        3.73908        1.30057
O         -7.35587        4.87688        1.22473
C         -6.08956        3.05388        0.37370
C         -5.44638        3.23719       -0.81696
C         -5.38848        4.40167       -1.62127
C         -5.10776        4.33625       -2.92857
C         -5.04849        5.52491       -3.74911
C         -4.39672        5.65131       -4.92174
C         -3.56965        4.57785       -5.57516
C         -4.41405        6.96951       -5.66182
N         -5.49784        6.90388       -6.61842
C         -5.87741        7.89933       -7.48690
C         -5.17166        8.92754       -7.97424
C         -5.74285        9.85189       -8.88987
O         -5.28277       11.16411       -9.00752
C         -6.75665        9.74608       -9.80751
C         -7.70698        8.82185      -10.35460
O         -7.88899        7.65124      -10.06052
N         -8.39584        9.55675      -11.29582
C         -7.97966       10.86605      -11.40522
O         -8.41092       11.73047      -12.14381
C         -6.92524       10.97284      -10.44896
C         -6.02464       11.87309       -9.95388
C         -5.82513       13.23682      -10.29168
C         -4.84837       13.94358       -9.70968
C         -4.56238       15.32627      -10.03827
C         -3.36907       15.91846       -9.87962
C         -3.09181       17.30187      -10.18003
C         -1.83770       17.67336       -9.88366
C         -1.02729       16.60902       -9.31285
S         -1.93180       15.10144       -9.31979
C          0.20583       16.72927       -8.78566
C          0.97626       17.95471       -8.67699
C          2.09731       17.82803       -7.95271
C          2.30341       16.49311       -7.45318
S          1.08745       15.39517       -8.03075
C          3.28148       16.11135       -6.62894
H          0.09679        1.71677        1.56853
H          0.11586       -3.15153        0.36793
H          2.95320        1.40448        1.69737
H         -5.10373       -0.94735       -0.54315
H         -7.72525        3.00122        3.09931
H         -5.57274        5.35875       -1.13900
H         -4.93663        3.37181       -3.39863
H         -5.58880        6.39041       -3.36094
H         -3.65602        3.60313       -5.08993
H         -2.51236        4.86172       -5.55013
H         -3.86979        4.44434       -6.61901
H         -3.45326        7.14236       -6.15978
H         -4.57568        7.80414       -4.96844
H         -6.26915        6.30391       -6.32955
H         -6.91608        7.75815       -7.77900
H         -4.14190        9.08853       -7.67614
H         -9.14046        9.16791      -11.84763
H         -6.45503       13.67864      -11.05890
H         -4.21396       13.47042       -8.96049
H         -5.39382       15.90645      -10.43358
H         -3.83733       17.96920      -10.59041
H         -1.47323       18.67910      -10.03382
H          0.66225       18.89141       -9.11369
H          2.77845       18.64037       -7.74343
H          4.02103       16.81231       -6.26040
H          3.35745       15.08344       -6.28630
