117

C        -15.50411        1.75769       10.00261
C        -16.21258        0.61514        9.84413
C        -17.12249        0.12483       10.82776
N        -17.86669       -0.28422       11.62613
C        -16.17622       -0.18717        8.65686
N        -16.17292       -0.83579        7.70287
C        -15.62715        2.71411       11.15230
C        -14.99567        3.90835       10.80332
C        -14.94446        5.03796       11.61037
C        -15.53825        4.95764       12.88481
C        -16.15300        3.75595       13.26563
C        -16.21010        2.62194       12.41200
S        -16.79276        3.87120       14.86763
C        -16.26064        5.46438       15.03489
C        -15.61261        5.94039       13.92786
Br       -16.52625        6.47974       16.58581
C        -14.34500        3.80596        9.49670
O        -13.74202        4.70979        8.95811
C        -14.58526        2.40781        9.02228
C        -14.02578        1.92713        7.90140
C        -13.16259        2.57033        6.95538
C        -11.79596        2.44867        7.07092
S        -11.00813        2.84390        5.61330
C        -12.49162        3.15463        4.82321
C        -13.56437        3.17495        5.70400
C        -14.78017        3.73244        5.22050
C        -15.84366        4.20528        6.21022
C        -16.87319        3.16524        6.64895
C        -14.92131        3.99551        3.78988
C        -16.12775        4.77599        3.33344
C        -17.42960        4.06711        3.60124
C        -13.88303        3.65009        2.85549
C        -13.77040        3.55319        1.39097
C        -12.44589        3.39923        1.00651
S        -11.37489        3.26725        2.31532
C        -12.64987        3.36097        3.43951
C        -14.76223        3.53329        0.32709
C        -16.07612        3.22395        0.38291
C        -16.98842        3.01460       -0.72614
C        -16.53767        2.85692       -2.02330
S        -17.73570        2.24929       -3.06571
C        -18.90351        2.23976       -1.82904
C        -18.43886        2.77684       -0.63370
C        -19.44181        2.97970        0.37834
C        -19.44453        4.31441        1.12775
C        -20.33927        4.52384        2.35548
C        -20.69663        2.26046        0.32169
C        -21.13244        1.57989        1.63237
C        -22.59815        1.46301        2.00501
C        -21.17672        1.86954       -0.96448
C        -22.48821        1.54425       -1.49914
C        -22.42604        1.05874       -2.78833
S        -20.85755        1.14899       -3.43313
C        -20.24022        1.82536       -1.99357
C        -23.73917        1.79476       -0.84252
C        -24.87613        1.10448       -1.00959
C        -26.06629        1.32983       -0.21725
C        -27.11330        2.09432       -0.55366
C        -28.35850        2.12350        0.17833
C        -29.37683        2.62688       -0.53551
C        -28.98866        3.04568       -1.87245
S        -27.22660        3.04556       -2.00585
C        -29.80779        3.24792       -2.92060
C        -31.24150        3.02829       -2.95501
C        -31.72047        2.87883       -4.20052
C        -30.69918        2.99331       -5.22626
S        -29.23415        3.62376       -4.53864
C        -30.88538        2.63017       -6.50277
C        -29.89803        2.57318       -7.63413
S        -28.25314        2.21786       -7.56877
C        -30.58245        2.66317       -8.94651
C        -30.81176        3.90939       -9.57619
S        -31.56222        3.91432      -11.19678
C        -31.41820        5.64806      -11.10029
C        -30.84353        6.07230       -9.91794
O        -30.48251        5.12813       -9.00418
H        -14.44182        5.93929       11.26928
H        -16.69061        1.72600       12.78700
H        -15.19636        6.93777       13.84995
H        -14.21383        0.90039        7.60665
H        -11.22643        2.07455        7.90876
H        -16.36117        5.08995        5.82519
H        -15.34560        4.61508        7.09016
H        -17.21180        2.51141        5.84094
H        -17.74220        3.67086        7.08552
H        -16.49554        2.49573        7.40830
H        -16.05980        5.02715        2.27264
H        -16.13012        5.75752        3.82121
H        -17.48714        3.06390        3.16956
H        -18.19282        4.72478        3.23189
H        -17.72050        3.98846        4.63562
H        -12.04348        3.31621        0.00499
H        -14.33991        3.68453       -0.66703
H        -16.49081        2.98665        1.34977
H        -15.54091        2.98686       -2.41943
H        -19.76120        5.07186        0.39899
H        -18.40865        4.57786        1.33585
H        -21.40051        4.43964        2.11126
H        -20.18177        5.52872        2.76614
H        -20.11959        3.82395        3.16837
H        -20.63416        2.04329        2.48337
H        -20.70841        0.56726        1.61013
H        -23.11909        2.42119        1.93703
H        -22.69759        1.11249        3.03856
H        -23.09812        0.71246        1.38907
H        -23.23571        0.71964       -3.41890
H        -23.74305        2.61526       -0.12898
H        -24.93586        0.27903       -1.71460
H        -26.11948        0.71873        0.68108
H        -28.46236        1.71153        1.17226
H        -30.39316        2.67054       -0.17176
H        -31.84843        2.91587       -2.06801
H        -32.75117        2.63713       -4.42235
H        -31.87888        2.28841       -6.78746
H        -30.77561        1.72805       -9.45914
H        -31.74078        6.32240      -11.87981
H        -30.64456        7.09597       -9.63439
