98

C         -4.09967        1.98623       -2.38977
C         -3.92664        0.63189       -2.39520
C         -2.64509        0.00795       -2.47139
N         -1.60237       -0.50723       -2.53183
C         -5.00355       -0.29973       -2.28863
N         -5.84501       -1.08105       -2.21794
C         -2.99761        3.00124       -2.40957
C         -3.53567        4.24714       -2.08369
C         -2.79808        5.42220       -1.98290
C         -1.41473        5.35152       -2.24515
C         -0.86256        4.11328       -2.60316
C         -1.63836        2.92829       -2.69784
S          0.83375        4.25390       -2.90207
C          0.82232        5.90556       -2.55694
C         -0.41580        6.38325       -2.22180
Br         2.35506        6.97904       -2.63129
C         -4.98823        4.16733       -1.91228
O         -5.69592        5.10822       -1.61908
C         -5.36374        2.74499       -2.20602
C         -6.64478        2.35105       -2.28187
C         -7.83190        3.15502       -2.02013
C         -8.91336        2.69086       -1.37439
C        -10.12699        3.42437       -1.10267
C        -11.07210        2.69549       -0.48322
C        -10.67888        1.31816       -0.22997
S         -8.99992        1.08661       -0.70464
C        -11.42919        0.30775        0.25268
C        -12.81266        0.35110        0.68568
C        -13.30819       -0.84471        1.04688
C        -12.37095       -1.94058        0.89486
S        -10.81661       -1.34276        0.38715
C        -12.65303       -3.24704        1.05928
C        -11.70777       -4.34079        0.70742
C        -11.69984       -4.96632       -0.59095
C        -12.89035       -4.66269       -1.49960
C        -14.08616       -5.59969       -1.26346
C        -10.61101       -5.83514       -0.97013
C         -9.61023       -6.02537        0.01022
C         -9.68053       -5.48994        1.30003
C        -10.73100       -4.66123        1.65491
C        -10.47066       -6.57349       -2.27645
C        -11.55632       -7.08818       -3.00890
C        -11.53479       -7.87004       -4.18676
C        -10.37131       -8.18653       -4.90540
C         -9.20539       -7.63604       -4.30219
C         -9.23888       -6.91835       -2.92713
N         -7.98996       -6.70940       -2.46607
S         -6.92942       -7.12147       -3.65754
N         -7.96921       -7.62115       -4.83402
C        -10.43034       -8.93591       -6.18932
C         -9.59428      -10.02753       -6.57810
C         -8.55339      -10.60070       -5.61976
C         -9.06488      -11.72471       -4.73063
C         -9.76810      -10.64569       -7.87690
C         -8.77434      -11.68671       -8.38811
C         -7.62761      -11.09438       -9.21067
C        -10.84259      -10.24593       -8.71655
C        -11.15406      -10.87068      -10.06488
C        -12.10734      -12.06017      -10.00183
C        -11.67230       -9.20233       -8.29783
C        -11.44771       -8.54807       -7.08909
H         -3.28224        6.35981       -1.72251
H         -1.14066        2.01557       -3.00210
H         -0.61874        7.41759       -1.97197
H         -6.88644        1.32328       -2.53500
H         -7.82343        4.18398       -2.37320
H        -10.25176        4.46030       -1.38970
H        -12.04472        3.08795       -0.22290
H        -13.39255        1.26394        0.70339
H        -14.32707       -0.99751        1.37459
H        -13.63829       -3.56623        1.38089
H        -12.58313       -4.64788       -2.54946
H        -13.23809       -3.63482       -1.33482
H        -14.00789       -6.56313       -1.76153
H        -15.00074       -5.16159       -1.67014
H        -14.22892       -5.84665       -0.20815
H         -8.73098       -6.62737       -0.20297
H         -8.88946       -5.70704        2.01323
H        -10.75251       -4.23060        2.65296
H        -12.54390       -6.90895       -2.65698
H        -12.50619       -8.21629       -4.54723
H         -8.16188       -9.85446       -4.94367
H         -7.65877      -10.91469       -6.16555
H         -9.85745      -11.36917       -4.06358
H         -8.24548      -12.08962       -4.09952
H         -9.45056      -12.56833       -5.30807
H         -9.28941      -12.44373       -8.98880
H         -8.35516      -12.26195       -7.55959
H         -7.97378      -10.69297      -10.16963
H         -6.89252      -11.87623       -9.43412
H         -7.10811      -10.28926       -8.68124
H        -10.23447      -11.16334      -10.57811
H        -11.60315      -10.10691      -10.71404
H        -11.71538      -12.86950       -9.37825
H        -12.26394      -12.46143      -11.01028
H        -13.08719      -11.77219       -9.60601
H        -12.49377       -8.86320       -8.92623
H        -12.09997       -7.70828       -6.85222
