86

C          7.90689       -3.12889      -10.60870
C          8.35113       -3.13264       -9.35022
C          9.40200       -2.29401       -8.84289
C          9.63490       -2.47135       -7.53607
C          8.76155       -3.45174       -6.90518
S          7.69380       -4.16865       -8.11393
C          8.73456       -3.74561       -5.59044
C          9.60736       -3.16578       -4.58491
C          9.32887       -3.55028       -3.33362
C          8.21284       -4.45991       -3.24851
S          7.58765       -4.85600       -4.82641
C          7.72506       -4.92005       -2.09115
N          6.63944       -5.73675       -1.84996
C          6.20919       -6.22055       -0.64756
S          7.22586       -6.29570        0.75375
C          5.99867       -6.96184        1.69498
N          6.24538       -7.22428        3.07453
O          5.42386       -6.76143        3.87562
O          7.23777       -7.90765        3.35650
C          4.82207       -7.14975        1.01539
C          4.95517       -6.74452       -0.35235
C          3.87842       -6.83468       -1.29340
C          3.56641       -7.97292       -1.93009
C          2.42356       -8.12887       -2.81281
C          2.07475       -9.26574       -3.43777
C          0.88568       -9.43138       -4.24094
C          0.68181      -10.69875       -4.64486
C          1.70508      -11.62914       -4.19878
S          2.97598      -10.75645       -3.35053
C          1.70891      -12.96735       -4.35222
C          0.67080      -13.76613       -4.97732
C          0.90017      -15.08626       -4.93002
C          2.14176      -15.43200       -4.27601
S          3.00336      -14.01795       -3.75298
C          2.58031      -16.68331       -4.08002
N          3.74356      -17.11980       -3.46407
C          4.13799      -18.40720       -3.20915
S          3.16439      -19.76296       -3.68834
C          4.22365      -20.88022       -3.01846
N          3.93904      -22.28786       -3.08744
O          4.72803      -23.03577       -2.49709
O          2.94781      -22.65968       -3.73136
C          5.31665      -20.29151       -2.43600
C          5.30432      -18.85731       -2.57856
C          6.37749      -18.00869       -2.10356
C          7.60378      -18.45346       -1.76271
C          8.70249      -17.62677       -1.29362
C          9.81742      -18.06572       -0.67941
C         10.89891      -17.20530       -0.25805
C         11.83668      -17.82802        0.46989
C         11.56635      -19.23714        0.70621
S         10.14142      -19.72467       -0.21618
C         12.25248      -20.04630        1.53952
C         13.39107      -19.65847        2.35848
C         13.82041      -20.61662        3.19192
C         13.06589      -21.83818        3.08825
S         11.84380      -21.73768        1.85138
C         13.25080      -22.92405        3.84315
H          8.32392       -2.46205      -11.35513
H          7.10724       -3.79030      -10.92719
H          9.93757       -1.58672       -9.46072
H         10.38422       -1.90845       -6.99898
H         10.40855       -2.47842       -4.81304
H          9.86840       -3.20564       -2.46248
H          8.21578       -4.59191       -1.17776
H          6.09048       -5.93352       -2.68870
H          3.92195       -7.55606        1.46283
H          3.28191       -5.93830       -1.44224
H          4.18728       -8.84978       -1.75011
H          1.78529       -7.25457       -2.92814
H          0.21628       -8.61313       -4.46762
H         -0.17209      -10.99413       -5.23710
H         -0.21815      -13.34183       -5.42232
H          0.22468      -15.83046       -5.32970
H          1.94939      -17.49046       -4.44329
H          4.32129      -16.34537       -3.13930
H          6.09390      -20.86393       -1.94093
H          6.17021      -16.94530       -2.00867
H          7.83681      -19.51140       -1.85682
H          8.59520      -16.55781       -1.46953
H         10.93726      -16.15367       -0.50727
H         12.70352      -17.31859        0.86542
H         13.84332      -18.67873        2.32065
H         14.64184      -20.49503        3.88443
H         14.00983      -22.95725        4.61738
H         12.63882      -23.81113        3.71173
