98

C         -9.86616      -15.73025        1.29632
S         -9.10438      -14.24647        1.66555
C         -8.32796      -14.17746        0.12723
C         -8.67445      -15.27225       -0.64750
C         -9.54555      -16.17195        0.03452
S        -10.16959      -17.67442       -0.64099
C         -9.09795      -17.90033       -1.98979
O         -8.39940      -18.86308       -2.23060
C         -9.28712      -16.67913       -2.86406
O        -10.05260      -16.56520       -3.79842
S         -8.11114      -15.52810       -2.30544
C         -7.52353      -13.04901       -0.18011
C         -6.21819      -13.02730        0.13856
C         -5.36813      -11.91019       -0.12489
C         -5.49870      -10.90869       -1.21825
N         -4.59601       -9.97101       -1.27221
C         -3.78831      -10.27634       -0.22612
C         -4.25181      -11.46518        0.45428
C         -3.33086      -11.76610        1.59474
S         -3.41564      -12.99439        2.70721
C         -2.33246      -10.65737        1.47882
C         -2.68989       -9.81394        0.36052
N         -1.79544       -8.80405        0.20786
C         -0.94777       -9.02632        1.17370
C         -1.22854      -10.19281        2.05204
C         -0.39411      -10.65148        3.12544
C         -0.19256       -9.84393        4.19969
C          0.77814      -10.22091        5.21316
C          1.18839       -9.59373        6.35260
C          0.57710       -8.37193        7.03206
C         -0.48036       -8.79318        8.09385
N         -1.62890       -9.51891        7.54080
C          1.60013       -7.40529        7.68473
N          1.02306       -6.19040        8.26590
C          2.35798      -10.37545        6.77840
C          3.40198      -10.08399        7.57187
C          4.62922      -10.97477        7.67731
C          4.43502      -12.35584        7.06859
C          3.39629      -12.65233        6.26647
C          2.44464      -11.60727        5.99666
C          1.51758      -11.49299        5.03881
C          1.19071      -12.37907        3.95226
C          0.28695      -11.96376        3.04673
C          5.04812      -11.06923        9.11892
C          5.95200      -10.26297        9.70372
C          6.26281      -10.33582       11.09996
C          6.09687      -11.53004       11.97359
N          6.39115      -11.38878       13.23035
C          6.77921      -10.08920       13.29760
C          6.72604       -9.46319       11.99472
C          7.14185       -8.02710       12.13955
S          7.31688       -6.85810       10.97452
C          7.35540       -7.92104       13.61703
C          7.14025       -9.21319       14.22309
N          7.30688       -9.15770       15.57392
C          7.59006       -7.90332       15.77602
C          7.63872       -7.04368       14.57674
C          7.83585       -5.66095       14.49359
S          9.40649       -5.06392       14.19514
C          8.90765       -3.41334       14.22354
C          7.53703       -3.33954       14.43907
C          6.93287       -4.62244       14.63310
S          5.21600       -4.87056       14.99382
C          4.75578       -3.28060       15.51764
O          4.28005       -2.95717       16.58409
C          4.99895       -2.38807       14.32051
O          4.19378       -2.08555       13.46476
S          6.62801       -1.81728       14.50220
C          9.84880       -2.36046       13.99246
C         11.13666       -2.43161       14.35652
H        -10.50888      -16.20042        2.02884
H         -8.01317      -12.20165       -0.65173
H         -5.76705      -13.87584        0.65071
H         -6.32594      -10.99755       -1.93897
H         -0.04988       -8.41644        1.35394
H         -0.67465       -8.87604        4.28988
H          0.05433       -7.78627        6.26308
H         -0.87893       -7.90595        8.59838
H         -0.01188       -9.41519        8.86587
H         -2.05664       -8.97505        6.79481
H         -2.33850       -9.61449        8.26719
H          2.36006       -7.11860        6.94899
H          2.09200       -7.89618        8.52488
H          0.44661       -5.69893        7.58828
H          1.77687       -5.55498        8.53130
H          3.48995       -9.14813        8.09643
H          5.43133      -10.48646        7.10622
H          5.18687      -13.11332        7.26943
H          3.26771      -13.63490        5.82831
H          1.67535      -13.34422        3.86928
H          0.04249      -12.61033        2.20765
H          4.50103      -11.80467        9.70656
H          6.43588       -9.47710        9.12395
H          5.74388      -12.47574       11.53562
H          7.79084       -7.46699       16.76881
H          9.49267       -1.44603       13.52225
H         11.56794       -3.29343       14.85595
H         11.80736       -1.59946       14.16629
