142

C         -3.83016        0.76264        3.26504
C         -4.81648        1.04671        4.14760
C         -5.21271        0.13283        5.17021
N         -5.54545       -0.61574        6.00155
C         -5.48103        2.30938        4.16917
N         -6.02375        3.32949        4.18659
C         -2.99799       -0.47333        3.24898
C         -1.80519       -0.18411        2.58189
C         -0.80339       -1.11958        2.35909
C         -1.06016       -2.45854        2.73680
C         -2.26933       -2.76118        3.37877
C         -3.24605       -1.77635        3.66976
S         -2.39370       -4.45102        3.71303
C         -0.90602       -4.78837        2.95487
C         -0.28147       -3.64499        2.51582
C         -1.83559        1.18541        2.03080
O         -0.89852        1.78070        1.54517
C         -3.24056        1.66272        2.24016
C         -3.86136        2.55386        1.44556
C         -3.38266        3.25279        0.21630
C         -2.95295        4.63449        0.29790
C         -2.51037        5.16970        1.66206
C         -3.53515        5.97752        2.44353
C         -2.80914        5.44222       -0.89236
C         -2.30306        6.88347       -0.84468
C         -3.25488        7.99349       -1.29580
C         -3.04797        4.83463       -2.14764
C         -2.88295        5.50162       -3.50790
C         -1.47082        5.44787       -4.07415
C         -3.38916        3.46679       -2.18515
C         -3.50963        2.62833       -1.04986
C         -3.75037        1.15558       -1.35198
C         -3.02544        0.61482       -2.37614
C         -3.41718       -0.64464       -2.99418
C         -2.91214       -1.34655       -4.04363
C         -1.60933       -1.30992       -4.81310
C         -0.87137        0.04402       -4.85435
N         -1.62907        1.08942       -5.55991
C         -0.72686       -2.41954       -4.17520
N          0.58464       -2.59022       -4.79968
C         -3.95624       -2.31579       -4.37855
C         -4.16105       -3.01906       -5.51013
C         -5.49101       -3.71201       -5.75163
C         -6.23794       -4.02075       -4.43955
C         -6.01010       -3.32770       -3.29906
C         -4.96488       -2.33177       -3.31898
C         -4.63106       -1.32908       -2.48334
C         -5.17684       -0.88994       -1.21793
C         -4.75445        0.28486       -0.69539
C         -5.43643       -4.86319       -6.72596
C         -5.63422       -4.98852       -8.06573
C         -5.89192       -4.17273       -9.33501
C         -6.71206       -2.98186       -9.44174
C         -7.55675       -2.50403       -8.25579
C         -7.00697       -1.27935       -7.51547
C         -6.87428       -2.26644      -10.71576
C         -7.76680       -1.01396      -10.76601
C         -7.47820        0.14204      -11.72155
C         -6.30882       -2.81756      -11.88629
C         -6.48498       -2.26837      -13.29671
C         -5.37346       -2.52564      -14.31242
C         -5.62631       -4.03561      -11.76713
C         -5.37932       -4.72213      -10.57273
C         -4.57711       -5.99762      -10.68864
C         -4.41402       -6.95279      -11.63564
C         -4.85858       -7.21902      -13.02303
C         -4.54024       -6.49723      -14.13026
C         -5.00921       -6.79762      -15.44744
N         -5.41253       -7.02584      -16.51344
C         -3.54061       -5.48188      -14.06720
N         -2.71381       -4.67072      -14.03266
C         -4.99172       -8.70469      -13.17241
C         -4.27107       -9.28597      -12.12631
C         -3.84299       -8.26295      -11.15335
O         -3.20108       -8.47153      -10.14343
C         -3.97993      -10.64250      -12.05369
C         -4.41444      -11.46886      -13.11613
C         -5.18047      -10.89968      -14.14300
C         -5.51578       -9.52142      -14.17135
S         -5.59678      -12.07816      -15.33554
C         -4.74233      -13.31177      -14.52843
C         -4.18142      -12.86574      -13.35524
H          0.10692       -0.84161        1.83604
H         -4.17347       -2.08369        4.14117
H         -0.55613       -5.80837        2.86852
H          0.67781       -3.65536        2.01242
H         -4.91921        2.76632        1.59434
H         -1.59005        5.75344        1.54843
H         -2.18020        4.33515        2.28992
H         -3.67546        6.97522        2.01706
H         -3.17983        6.11174        3.47320
H         -4.50821        5.48120        2.48901
H         -1.38336        6.92975       -1.43985
H         -1.98575        7.16518        0.16112
H         -3.82504        7.77460       -2.19711
H         -2.67804        8.90560       -1.49527
H         -3.98638        8.22608       -0.51760
H         -3.21768        6.53529       -3.50781
H         -3.55848        5.01566       -4.22563
H         -0.75830        5.98572       -3.44274
H         -1.45329        5.91743       -5.06497
H         -1.12136        4.41727       -4.18608
H         -3.55515        3.03540       -3.17441
H         -2.27403        1.20540       -2.88399
H         -1.79848       -1.58353       -5.85952
H          0.08696       -0.06215       -5.37363
H         -0.61929        0.38136       -3.84488
H         -2.61385        1.02854       -5.30019
H         -1.60483        0.88377       -6.55910
H         -1.24554       -3.38711       -4.22035
H         -0.57876       -2.20458       -3.10919
H          1.26359       -2.82733       -4.07530
H          0.55847       -3.40642       -5.41259
H         -3.47926       -2.95155       -6.35501
H         -6.11800       -2.97965       -6.22282
H         -7.03868       -4.75570       -4.46163
H         -6.58136       -3.49530       -2.39301
H         -5.86417       -1.53162       -0.67966
H         -5.13681        0.58944        0.26914
H         -5.18781       -5.79855       -6.21468
H         -5.56353       -6.04419       -8.34457
H         -7.72975       -3.33518       -7.56535
H         -8.57226       -2.27625       -8.60678
H         -5.92632       -1.16457       -7.65000
H         -7.22988       -1.34511       -6.44452
H         -7.49135       -0.35140       -7.82784
H         -7.72545       -0.52314       -9.79875
H         -8.80294       -1.34192      -10.91074
H         -6.40365        0.32334      -11.83294
H         -7.92894        1.06972      -11.35410
H         -7.94240       -0.02904      -12.69882
H         -6.50774       -1.19065      -13.28492
H         -7.43888       -2.62957      -13.69819
H         -4.39804       -2.23744      -13.90534
H         -5.54640       -1.93010      -15.21553
H         -5.34649       -3.56731      -14.63042
H         -5.27341       -4.46956      -12.68014
H         -4.04365       -6.19250       -9.75510
H         -3.39232      -11.04031      -11.23141
H         -6.10636       -9.14459      -15.00003
H         -4.69382      -14.30797      -14.94803
H         -3.60314      -13.50626      -12.69984
