87

C         -2.29188        0.01550        3.40728
C         -1.52555       -0.64860        4.36371
F         -0.91096        0.09905        5.29353
C         -1.34315       -2.05169        4.40509
F         -0.48124       -2.50348        5.32959
C         -1.96353       -2.96645        3.52493
C         -2.78303       -2.33310        2.52455
C         -2.91488       -0.81977        2.46239
N         -3.65982       -0.38498        1.43589
S         -4.17638       -1.72892        0.62024
N         -3.51494       -2.91761        1.55736
C         -1.76445       -4.43627        3.55850
S         -1.67046       -5.25734        2.04113
C         -1.57248       -6.84044        2.69782
C         -1.42605       -6.73417        4.07002
C         -1.54385       -5.36262        4.56995
C         -1.44261       -5.05460        5.93807
C         -1.15408       -6.17667        6.74053
F         -0.97996       -5.97302        8.05672
C         -1.03375       -7.50062        6.24579
F         -0.76473       -8.48767        7.11604
C         -1.18229       -7.84622        4.89347
C         -1.57148       -8.00192        1.85524
C         -1.56733       -7.96234        0.51275
C         -1.44217       -9.09555       -0.37727
C         -0.64180      -10.17499       -0.25944
C          0.28461      -10.47900        0.88910
C         -0.57841      -11.20252       -1.36588
N         -1.54376      -12.22788       -1.05264
C         -1.48045      -13.53205       -1.46276
C         -2.46698      -14.42202       -1.32535
C         -2.37328      -15.79568       -1.75612
C         -3.42654      -16.58694       -1.99778
C         -4.82215      -16.22181       -1.96364
C         -5.65241      -17.24161       -2.21041
C         -4.97078      -18.50541       -2.40588
S         -3.22463      -18.25937       -2.44364
C         -5.56137      -19.71097       -2.43288
C         -6.98506      -19.97731       -2.32708
C         -7.26464      -21.24512       -1.99588
C         -6.07682      -22.04668       -1.82033
S         -4.66666      -21.21940       -2.41716
C         -6.05929      -23.25075       -1.24012
C         -4.85934      -24.00196       -0.92225
C         -4.79474      -25.32943       -0.76939
C         -3.69770      -26.16863       -0.25263
C         -2.36486      -25.93685       -0.35706
C         -1.39405      -26.87688        0.09025
N         -0.60523      -27.64914        0.46765
C         -1.82130      -24.78124       -0.99506
N         -1.36568      -23.83897       -1.50009
C         -4.35369      -27.40734        0.27280
C         -5.67376      -27.43187       -0.18413
C         -5.99061      -26.21507       -0.92749
O         -7.03663      -26.00555       -1.50628
C         -6.60284      -28.41468        0.12517
C         -6.19161      -29.43606        1.00131
C         -4.87544      -29.41778        1.49088
C         -3.93529      -28.41420        1.13299
S         -4.60482      -30.74096        2.56985
C         -6.18987      -31.29444        2.39493
C         -6.93991      -30.53652        1.53804
Br        -6.86015      -32.79408        3.29402
H         -2.38745        1.09285        3.38769
H         -1.53925       -4.08110        6.39421
H         -1.08440       -8.87363        4.57062
H         -1.52436       -8.96806        2.34766
H         -1.68153       -7.02182       -0.02306
H         -2.02998       -8.98531       -1.29238
H          0.37849       -9.67038        1.61411
H          1.29763      -10.66445        0.51969
H         -0.06143      -11.37090        1.42237
H          0.43334      -11.61979       -1.43597
H         -0.80628      -10.75753       -2.34125
H         -2.46866      -11.89105       -0.79847
H         -0.53853      -13.80671       -1.93528
H         -3.38787      -14.10984       -0.84248
H         -1.36764      -16.20034       -1.86728
H         -5.16643      -15.21845       -1.76240
H         -6.72714      -17.13827       -2.20799
H         -7.74492      -19.22181       -2.46193
H         -8.26149      -21.62648       -1.82425
H         -7.00711      -23.67669       -0.91599
H         -3.98903      -23.38288       -0.71816
H         -7.61884      -28.35836       -0.25706
H         -2.94592      -28.44208        1.57560
H         -7.98023      -30.73219        1.30511
