86

C         -4.01108        0.10710        1.64972
C         -2.89844       -0.36158        0.99540
C         -1.87822        0.53418        0.59901
N         -0.79530        0.01284       -0.04245
C         -0.75040       -1.31845       -0.27779
C         -1.75910       -2.15539        0.12124
N         -2.84292       -1.68700        0.76442
C         -2.02182        1.91902        0.89272
C         -3.17723        2.37516        1.59243
C         -4.17391        1.43653        1.95310
N         -5.30701        1.77345        2.59728
C         -5.47431        3.07314        2.89830
C         -4.52506        4.00903        2.57616
N         -3.37965        3.67362        1.94407
C         -0.97157        2.89543        0.46151
S         -1.34425        4.49683       -0.12916
C          0.32059        4.97502       -0.35631
C          1.06036        3.88143       -0.05733
C          0.37860        2.76759        0.38743
N          1.13918        1.67015        0.68703
C          2.42292        2.10409        0.39146
C          3.56668        1.26248        0.50475
N          4.49064        0.56842        0.59681
C          2.41371        3.44279       -0.04543
C          0.65109        6.29222       -0.79199
C          1.94004        6.63894       -1.06739
C          1.90068        7.97889       -1.43942
N          2.84151        8.86593       -1.80900
C          2.18375       10.05802       -2.07516
C          0.81763        9.87227       -1.84124
C          0.66507        8.54593       -1.43494
C         -0.31206        7.51891       -1.00559
C          2.97655       11.14880       -2.49962
C          2.44864       12.10020       -3.27882
C          3.17523       13.28887       -3.72406
C          2.45129       14.45792       -3.96114
C          3.10296       15.62495       -4.35964
C          4.47798       15.54988       -4.56739
N          5.21683       14.43385       -4.38043
C          4.54804       13.33318       -3.96333
C          2.38531       16.87308       -4.61858
C          1.29893       17.26783       -3.93106
C          0.58486       18.47741       -4.19644
S          1.06610       19.54009       -5.46201
C         -0.19514       20.68603       -5.21423
C         -0.99157       20.25031       -4.16493
C         -0.53999       19.00744       -3.57788
C         -1.17539       18.38952       -2.48874
C         -2.32727       19.06936       -2.01178
C         -3.02649       18.50599       -0.83004
C         -3.12454       17.20298       -0.53127
C         -2.78384       20.31059       -2.60588
C         -4.00097       21.02483       -2.05622
C         -2.11904       20.94345       -3.69880
C         -0.28581       21.85857       -6.03672
C          0.56812       22.15811       -7.02751
H         -4.78667       -0.59842        1.94147
H          0.12935       -1.68664       -0.79352
H         -1.72895       -3.22320       -0.06039
H         -6.39503        3.33507        3.40649
H         -4.65414        5.05938        2.81033
H          0.79266        0.74938        0.93320
H          3.29470        3.99617       -0.34007
H          2.83277        6.03917       -1.02011
H          3.83423        8.69652       -1.90358
H          0.04698       10.62455       -1.94931
H         -1.04809        7.30784       -1.78623
H         -0.80258        7.79628       -0.06748
H          4.01172       11.19868       -2.17099
H          1.40924       12.03744       -3.59659
H          1.37161       14.45299       -3.82823
H          5.04580       16.41607       -4.89805
H          5.17589       12.45740       -3.83278
H          2.80961       17.47149       -5.42032
H          0.92950       16.64269       -3.12248
H         -0.81784       17.47978       -2.02562
H         -3.49422       19.22267       -0.15972
H         -2.69964       16.42070       -1.15021
H         -3.65572       16.88500        0.36081
H         -4.82953       20.32555       -1.90019
H         -4.36344       21.78864       -2.75300
H         -3.75047       21.51860       -1.11216
H         -2.47435       21.87666       -4.11596
H         -1.09745       22.55480       -5.84437
H          1.41389       21.53640       -7.30522
H          0.44250       23.06486       -7.60934
