71

C          6.14761        5.89786        5.87347
N          6.60742        5.37017        6.97403
C          7.45168        4.41176        6.51481
C          7.46835        4.39519        5.06706
C          8.40848        3.32585        4.62898
O          8.71278        2.97514        3.51102
C          8.89771        2.77528        5.91483
C          8.27259        3.48507        6.99809
N          8.70895        2.99613        8.18714
C          9.53846        2.05604        7.82686
C          9.72092        1.84231        6.37488
C          6.65123        5.33134        4.59297
C          6.34344        5.69917        3.26606
S          5.24413        6.98026        2.94435
C          5.37407        6.82101        1.24278
C          4.48981        7.65234        0.45265
O          4.18730        7.47759       -0.72552
C          6.29312        5.84951        0.89401
C          6.80632        5.18855        2.06463
C          6.73666        5.48834       -0.50540
S          7.37548        3.96457       -0.91363
C          7.57772        4.37932       -2.57191
C          8.05040        3.29676       -3.41777
O          8.24991        3.34514       -4.62845
C          7.24790        5.71095       -2.81484
C          6.75150        6.32423       -1.59948
C          7.38608        6.43246       -4.09627
C          6.50247        7.47841       -4.44000
C          6.69779        8.23824       -5.60707
C          7.75833        7.87374       -6.42704
N          8.64623        6.89949       -6.13096
C          8.44660        6.21875       -4.97317
C          5.86500        9.39111       -5.95092
N          6.17138       10.71973       -5.61927
C          7.32205       11.18974       -4.87176
C          8.13023       12.25197       -5.61335
C          5.16271       11.60822       -6.05742
O          5.06758       12.81006       -5.88745
C          4.23855       10.72507       -6.78569
C          4.73077        9.37875       -6.66075
C          3.80331        8.49668       -7.38434
O          3.88024        7.28846       -7.45436
N          2.87345        9.40452       -7.95118
C          1.72605        8.98865       -8.74891
C          1.96437        7.76968       -9.63003
C          3.12572       10.72064       -7.52478
C          2.32511       11.85535       -7.91501
C          2.14741       12.96402       -7.18642
H          5.42148        6.72356        5.86338
H         10.10008        1.42628        8.53317
H         10.34514        1.13050        5.87312
H          4.03957        8.50857        0.98604
H          7.53453        4.38804        2.01367
H          8.24705        2.33812       -2.90200
H          6.45764        7.36452       -1.55238
H          5.66194        7.71604       -3.79005
H          7.94840        8.38247       -7.36808
H          9.22368        5.48764       -4.76958
H          7.98198       10.35350       -4.62636
H          6.95017       11.61474       -3.93308
H          8.49239       11.87586       -6.57534
H          8.99362       12.55542       -5.01285
H          7.54250       13.15438       -5.81097
H          1.44268        9.80650       -9.41816
H          0.88773        8.80493       -8.06836
H          2.86040        7.89779      -10.24606
H          1.10998        7.61040      -10.29575
H          2.08066        6.85999       -9.03464
H          1.83548       11.81461       -8.88296
H          2.60231       13.11062       -6.21060
H          1.54755       13.78793       -7.56371
