157

C         -5.49433       -0.03492        6.06675
S         -4.56403       -1.47825        6.08773
C         -5.42007       -2.14532        4.74674
C         -6.40734       -1.28327        4.32295
C         -6.42444       -0.06236        5.05927
C         -7.28428        0.99436        4.79462
C         -8.11183        0.74581        3.65705
S         -9.08754        2.19258        3.17797
C         -7.91207        3.00795        2.03209
C         -6.50916        3.22902        2.58189
C         -8.15056       -0.51950        2.93073
S         -9.47520       -0.86925        1.73992
C         -8.70675       -1.67391        0.27159
C         -8.01861       -3.01571        0.46336
C         -7.28961       -1.58398        3.27853
C         -5.02913       -3.39005        4.20291
C         -5.40810       -4.52981        4.79214
C         -5.11491       -5.74445        4.13139
S         -6.37315       -6.50016        3.23780
C         -5.36660       -7.80710        2.74716
C         -4.08198       -7.63696        3.22965
C         -3.95466       -6.48628        4.06812
C         -2.81231       -6.19963        4.83198
C         -1.81354       -7.23209        4.81657
S         -0.86293       -7.13302        6.37291
C          0.92360       -6.84599        6.08088
C          1.45334       -6.48241        4.71270
C         -1.93440       -8.38959        3.93233
S         -1.06358       -9.98173        4.03361
C          0.66650       -9.65876        3.58523
C          1.44574       -9.88806        4.86404
C         -3.06153       -8.57621        3.06009
C         -5.98697       -8.85535        2.01968
C         -5.82208       -8.92863        0.69500
C         -6.46174       -9.91071       -0.11122
S         -6.99796       -9.38342       -1.67199
C         -7.43742      -10.96076       -2.18772
C         -7.21017      -11.86347       -1.16946
C         -6.71449      -11.26420        0.04047
C         -6.38432      -12.01959        1.17735
C         -6.56674      -13.42495        1.01522
S         -6.09105      -14.38153        2.48210
C         -7.74272      -14.80062        3.13384
C         -7.60683      -15.55411        4.44901
C         -7.00170      -14.03470       -0.22796
S         -6.91626      -15.84105       -0.45611
C         -8.16452      -16.19059       -1.74800
C         -7.91125      -17.54149       -2.39519
C         -7.34796      -13.24501       -1.35030
C         -7.87419      -11.12127       -3.53560
C         -8.99643      -11.78913       -3.83227
C         -9.44830      -12.06857       -5.16161
S        -10.60383      -13.37153       -5.28965
C        -10.75723      -13.25093       -6.99488
C         -9.85227      -12.31945       -7.45778
C         -9.19344      -11.56691       -6.42976
C         -8.36010      -10.46737       -6.73693
C         -8.18972      -10.20826       -8.13363
S         -6.96866       -8.87600       -8.43521
C         -7.76728       -7.80253       -9.67858
C         -6.98140       -6.51116       -9.85379
C         -8.81422      -11.00820       -9.15521
S         -8.56780      -10.75498      -10.92256
C        -10.27129      -10.88230      -11.58737
C        -11.29543       -9.99615      -10.89332
C         -9.66328      -12.09693       -8.82686
C        -11.76470      -13.97281       -7.71437
C        -12.22191      -15.18369       -7.39474
C        -13.20084      -15.87249       -8.18128
S        -14.48527      -15.02138       -8.96102
C        -15.13957      -16.43700       -9.72881
C        -14.41057      -17.54600       -9.33201
C        -13.32892      -17.22137       -8.44165
C        -12.41559      -18.16581       -7.96178
C        -12.60987      -19.49182       -8.44325
S        -11.19909      -20.52809       -7.97462
C        -11.84961      -21.45625       -6.54816
C        -11.69966      -20.69135       -5.24871
C        -13.70040      -19.84192       -9.33388
S        -14.15651      -21.46204      -10.03402
C        -12.72032      -22.53505       -9.80667
C        -12.88445      -23.86387      -10.51714
C        -14.63622      -18.85487       -9.79817
C        -16.23473      -16.21755      -10.61873
C        -17.29143      -17.02515      -10.70677
H         -5.29074        0.74500        6.78682
H         -7.29735        1.92310        5.35006
H         -8.34447        3.98242        1.78141
H         -7.86132        2.42462        1.10857
H         -6.52022        3.74667        3.54668
H         -5.92865        3.84212        1.88416
H         -5.96374        2.28642        2.69057
H         -8.04164       -0.96940       -0.23625
H         -9.54971       -1.85014       -0.40863
H         -6.98174       -2.88458        0.78679
H         -7.96669       -3.55163       -0.49153
H         -8.54800       -3.66159        1.17093
H         -7.33885       -2.56547        2.83966
H         -4.51146       -3.38873        3.24600
H         -5.98644       -4.55261        5.71162
H         -2.79055       -5.37199        5.53404
H          1.42430       -7.74132        6.45331
H          1.25504       -6.08056        6.79402
H          0.76379       -6.69959        3.90075
H          2.38710       -7.03259        4.52802
H          1.71366       -5.42159        4.66937
H          0.82057       -8.67631        3.13612
H          0.99939      -10.39682        2.84403
H          0.92500       -9.46395        5.72125
H          2.44778       -9.45597        4.81018
H          1.54425      -10.95514        5.08360
H         -3.18652       -9.46669        2.45358
H         -6.64225       -9.52646        2.56583
H         -5.21477       -8.18111        0.18637
H         -5.97458      -11.60905        2.09070
H         -8.27486      -15.42133        2.40801
H         -8.32380      -13.88608        3.29480
H         -6.83458      -16.32990        4.40855
H         -8.55333      -16.04594        4.69883
H         -7.36780      -14.87101        5.27175
H         -8.14285      -15.46229       -2.55622
H         -9.15688      -16.16313       -1.28936
H         -6.89196      -17.61508       -2.79105
H         -8.59572      -17.67056       -3.24178
H         -8.08342      -18.36592       -1.69818
H         -7.59588      -13.64876       -2.31567
H         -7.23255      -10.68946       -4.29109
H         -9.58117      -12.21518       -3.01530
H         -7.88625       -9.83832       -6.00016
H         -8.79833       -7.58387       -9.38682
H         -7.76551       -8.28960      -10.65120
H         -6.92928       -5.93003       -8.92860
H         -7.46626       -5.88785      -10.61404
H         -5.96178       -6.71002      -10.20390
H        -10.58923      -11.92856      -11.56236
H        -10.22055      -10.59911      -12.64369
H        -11.36141      -10.17629       -9.81676
H        -12.29005      -10.19978      -11.30532
H        -11.07925       -8.93542      -11.05125
H        -10.11324      -12.72211       -9.58481
H        -12.14222      -13.47532       -8.61788
H        -11.80494      -15.71932       -6.53160
H        -11.57471      -17.90759       -7.32770
H        -11.25567      -22.37549       -6.48216
H        -12.88998      -21.74973       -6.70979
H        -10.65082      -20.45367       -5.04064
H        -12.06619      -21.30588       -4.41920
H        -12.27765      -19.76305       -5.25567
H        -12.62464      -22.75594       -8.74508
H        -11.82707      -22.04288      -10.19579
H        -13.76161      -24.41032      -10.15619
H        -12.00357      -24.48320      -10.31337
H        -12.96065      -23.73691      -11.60068
H        -15.42672      -19.10243      -10.49777
H        -16.23086      -15.30958      -11.22178
H        -17.39860      -17.92840      -10.10574
H        -18.10125      -16.80216      -11.39337
