96

C          1.70595       -0.69744       -0.10552
N          2.28322        0.36578       -0.79014
C          3.39116        0.22167       -1.71480
C          2.92156       -0.04542       -3.13516
C          1.63497        1.58762       -0.51936
O          1.84838        2.70043       -0.95947
C          0.58437        1.18729        0.44118
C          0.70079       -0.23556        0.63903
C         -0.33900       -0.65881        1.58390
O         -0.55137       -1.78927        1.97442
N         -0.99669        0.55536        1.87773
C         -2.15482        0.59376        2.74569
C         -1.78053        0.79452        4.20422
C         -0.42771        1.63402        1.18979
C         -0.90324        2.98807        1.30964
C         -1.35316        3.71244        0.26904
C         -1.84955        5.06028        0.37231
N         -1.38135        6.13988       -0.38300
C         -0.44374        6.08268       -1.48807
C         -1.17648        5.95062       -2.81741
C         -2.08111        7.33621       -0.08739
O         -1.97298        8.44264       -0.55998
C         -3.05541        6.88882        0.92728
C         -2.85582        5.48384        1.14159
C         -3.86327        5.02401        2.11029
O         -4.01268        3.89599        2.53183
N         -4.57486        6.20654        2.39844
C         -5.66813        6.23658        3.35033
C         -7.01002        5.88396        2.72775
C         -4.07419        7.29849        1.68168
C         -4.60447        8.63084        1.77068
C         -5.86884        8.93790        1.44585
C         -6.48755       10.25540        1.50680
N         -7.77826       10.30051        1.13035
C         -8.35605       11.50970        1.14570
C         -7.69610       12.64994        1.52874
C         -6.37735       12.49267        1.91135
N         -5.75316       11.30126        1.91085
C         -5.61353       13.66738        2.34739
C         -4.32389       13.65946        2.72616
C         -3.68338       14.87265        3.11669
S         -1.99956       15.07955        2.87664
C         -2.01028       16.71756        3.42716
C         -3.28661       17.09137        3.82888
C         -4.21960       16.01063        3.68781
C         -3.67010       18.41915        4.29083
O         -4.78923       18.68010        4.72432
C         -0.78307       17.44486        3.35273
C         -0.34711       18.22283        4.35823
C          0.84859       18.99475        4.24132
S          1.67326       19.52502        5.65260
C          2.91813       20.31959        4.76161
C          2.68493       20.22269        3.39791
C          1.49974       19.46390        3.11653
C          3.51919       20.81503        2.35998
O          3.12650       21.00059        1.21404
C          3.93109       21.01180        5.48594
C          5.06272       20.40195        5.85957
H          2.05686       -1.70995       -0.20125
H          4.03724       -0.59364       -1.36986
H          3.97916        1.14601       -1.69603
H          2.33257       -0.96706       -3.18991
H          3.78018       -0.14932       -3.80587
H          2.29592        0.77408       -3.50367
H         -2.67714       -0.36660        2.65175
H         -2.84857        1.36880        2.40752
H         -1.06187        0.03825        4.53761
H         -2.67126        0.71928        4.83643
H         -1.33025        1.77881        4.36412
H         -0.88626        3.40669        2.31469
H         -1.38720        3.27082       -0.72305
H          0.26328        5.25887       -1.34783
H          0.13315        7.01562       -1.49914
H         -1.80474        5.05444       -2.83213
H         -0.46670        5.89116       -3.64763
H         -1.82975        6.81305       -2.99272
H         -5.70678        7.22283        3.82492
H         -5.44642        5.51120        4.14131
H         -7.29461        6.57409        1.93494
H         -7.79906        5.92555        3.48371
H         -6.99746        4.88625        2.28026
H         -3.91517        9.40778        2.09311
H         -6.54376        8.18003        1.07399
H         -9.39447       11.53702        0.82893
H         -8.19485       13.60948        1.52873
H         -6.17022       14.59973        2.33088
H         -3.74435       12.73844        2.70438
H         -5.26712       16.10463        3.95420
H         -2.90827       19.21059        4.22079
H         -0.19359       17.32206        2.44610
H         -0.89707       18.28005        5.29480
H          1.15282       19.28251        2.10527
H          4.54882       21.07705        2.64984
H          3.75690       22.04866        5.76343
H          5.27490       19.36189        5.63058
H          5.80778       20.94062        6.44006
