115

C         -8.32869        5.40740       -7.54352
C         -9.13768        6.49437       -7.60143
C         -8.74810        7.76496       -8.11835
N         -8.51327        8.83543       -8.48933
C        -10.48428        6.47579       -7.10410
N        -11.56560        6.45798       -6.69301
C         -6.88249        5.26380       -7.98999
C         -6.47016        3.96955       -7.66518
C         -5.15095        3.54991       -7.53621
C         -4.14929        4.48798       -7.81574
C         -4.53071        5.70502       -8.40340
C         -5.90607        6.11268       -8.50788
S         -3.10276        6.55275       -8.90764
C         -2.08880        5.53262       -8.02489
C         -2.74266        4.44520       -7.51744
Br        -0.26397        5.85627       -7.74865
C         -7.59757        3.14766       -7.25241
O         -7.60832        1.93371       -7.26282
C         -8.66313        4.11039       -6.88154
C         -9.49972        3.80901       -5.87153
N         -9.53405        2.73790       -4.99648
C         -8.53004        2.01642       -4.41315
S         -8.94217        0.41082       -3.88798
C         -7.36894        0.09674       -3.37483
N         -7.04708       -1.16215       -2.77691
O         -6.00157       -1.70504       -3.15794
O         -7.79985       -1.57689       -1.88637
C         -6.51110        1.14545       -3.58058
C         -7.19448        2.30013       -4.11083
C         -6.45278        3.51888       -4.33401
C         -6.86175        4.80210       -4.28998
C         -6.00391        5.88012       -4.71168
O         -6.47780        7.01369       -5.34895
C         -5.43006        7.82366       -5.78512
C         -4.25833        7.28398       -5.24049
C         -4.62685        6.02720       -4.66316
O         -3.83056        5.07310       -4.13687
C         -2.95093        7.91468       -5.27989
O         -2.75357        9.09965       -5.49438
O         -1.91920        7.07626       -4.99918
C         -5.69325        8.93124       -6.67464
C         -4.87786        9.32117       -7.68007
C         -5.17451       10.32875       -8.73440
C         -6.06073       11.37234       -8.48273
C         -6.22260       12.38070       -9.42989
C         -5.51891       12.38896      -10.64799
C         -4.67482       11.33534      -10.94707
C         -4.50470       10.31130       -9.98770
C         -5.85122       13.60253      -11.37145
C         -6.78723       14.34817      -10.61906
C         -7.10182       13.63173       -9.30101
C         -8.59627       13.24505       -9.17010
C         -9.14390       12.33518      -10.27130
C         -6.58694       14.40809       -8.05497
C         -7.21645       15.76498       -7.78082
C         -7.30837       15.54699      -11.09808
C         -6.84379       16.05442      -12.31860
C         -5.90231       15.30981      -13.05823
C         -5.40353       14.08440      -12.59064
C         -7.38485       17.33801      -12.79624
C         -6.69448       18.20818      -13.55135
C         -7.21421       19.46676      -13.98611
C         -7.65754       20.48844      -13.23806
C         -7.74216       20.72125      -11.78963
C         -6.82319       20.38623      -10.85441
C         -6.96664       20.71974       -9.47458
N         -7.08392       20.98858       -8.35408
C         -5.57397       19.79582      -11.18554
N         -4.52022       19.35988      -11.42312
C         -8.90181       21.64219      -11.58645
C         -9.26290       22.17009      -12.82967
C         -8.47523       21.54901      -13.90687
O         -8.53897       21.80889      -15.09078
C        -10.27894       23.10044      -13.01615
C        -10.98721       23.53497      -11.87314
C        -10.65111       22.99096      -10.62358
C         -9.61801       22.02988      -10.45918
S        -11.65106       23.63987       -9.37233
C        -12.49320       24.61391      -10.46221
C        -12.06638       24.47781      -11.75602
Br       -13.87828       25.76488       -9.94654
H         -4.92407        2.57696       -7.11035
H         -6.13473        7.10591       -8.88069
H         -2.26728        3.65764       -6.94181
H        -10.26743        4.49971       -5.54245
H        -10.47932        2.39601       -4.82239
H         -5.45944        1.11204       -3.31679
H         -5.41432        3.33054       -4.60006
H         -7.88525        5.04868       -4.02794
H         -2.91596        5.37107       -4.00692
H         -2.02156        6.24901       -5.50154
H         -6.68337        9.36695       -6.59206
H         -3.89205        8.89029       -7.79244
H         -6.60424       11.43155       -7.54739
H         -4.13661       11.30356      -11.89021
H         -3.82299        9.49932      -10.23676
H         -9.21497       14.14924       -9.15146
H         -8.75852       12.73733       -8.21015
H         -9.03094       12.78261      -11.26288
H        -10.21188       12.15860      -10.10673
H         -8.65038       11.35855      -10.27443
H         -5.49861       14.54971       -8.12110
H         -6.75054       13.79158       -7.16034
H         -6.88089       16.51234       -8.50412
H         -6.90657       16.11781       -6.79132
H         -8.30781       15.72175       -7.78986
H         -8.05323       16.08550      -10.52063
H         -5.54817       15.67566      -14.01942
H         -4.67515       13.53936      -13.18206
H         -8.40015       17.56776      -12.47983
H         -5.68358       17.98984      -13.88927
H         -7.31108       19.55161      -15.08140
H        -10.52463       23.46468      -14.00986
H         -9.43115       21.63383       -9.46785
H        -12.49390       25.01813      -12.59232
