90

C         -0.21589        4.40073        2.34436
C         -0.08322        4.86487        3.61103
C          1.06629        4.62490        4.41937
N          1.99223        4.42454        5.08941
C         -1.08278        5.64692        4.26445
N         -1.88461        6.28221        4.80398
C          0.81648        3.64603        1.55852
C          0.34219        3.44860        0.25726
C          1.01003        2.70856       -0.71455
C          2.21581        2.07416       -0.34036
C          2.72049        2.29994        0.94785
C          2.05350        3.10998        1.90050
S          4.19526        1.43666        1.20193
C          4.06462        0.66206       -0.29087
C          3.03411        1.13525       -1.05925
Br         5.19758       -0.73166       -0.82072
C         -0.99421        4.03759        0.09413
O         -1.65808        4.05115       -0.92464
C         -1.38175        4.55281        1.44270
C         -2.65930        4.91515        1.66766
N         -3.72062        4.96163        0.77723
C         -5.01777        5.34077        1.01228
S         -5.56712        5.79584        2.59883
C         -7.10500        6.16265        2.04360
N         -8.06368        6.68915        2.95664
O         -8.52008        7.80707        2.68820
O         -8.38431        5.97448        3.91429
C         -7.27745        5.93692        0.70430
C         -6.07537        5.42603        0.09409
C         -5.96793        5.06287       -1.30344
C         -6.95963        5.11564       -2.21201
N         -6.90482        4.80083       -3.55973
C         -7.92660        4.86866       -4.46737
C         -9.26442        4.75575       -4.13868
S        -10.30074        4.91837       -5.48721
C         -8.97261        5.13107       -6.53645
C         -7.75497        5.08461       -5.88372
N         -6.55299        5.25246       -6.51631
C         -6.33591        6.00474       -7.65636
C         -5.18222        6.24827       -8.29725
C         -5.04805        7.16648       -9.45680
C         -5.80785        8.34348       -9.66597
C         -5.63345        9.20391      -10.80739
N         -6.43940       10.27837      -10.98974
C         -7.30392       10.60901       -9.99696
C         -7.37963        9.86497       -8.84862
N         -6.68472        8.70976       -8.71034
C         -8.05133       10.31908       -7.66929
N         -8.53967       10.73252       -6.70121
C         -8.09647       11.78446      -10.20035
N         -8.77072       12.71979      -10.33377
C         -4.58755        9.00096      -11.71794
C         -3.74403        7.87268      -11.52358
C         -3.98560        6.93102      -10.37565
N         -3.09180        5.92595      -10.33638
S         -2.02209        6.17539      -11.57628
N         -2.67447        7.53132      -12.26376
C         -4.19200       10.00006      -12.72722
C         -3.31482       10.98420      -12.46826
C         -2.81811       11.93032      -13.43861
C         -1.79495       12.67434      -12.98928
C         -1.39908       12.36400      -11.62453
S         -2.56096       11.24548      -10.91166
C         -0.27258       12.76060      -11.00051
C          0.78292       13.58844      -11.56020
C          1.91596       13.57559      -10.84134
C          1.82413       12.75974       -9.65722
S          0.20072       12.19949       -9.39149
C          2.83838       12.41429       -8.86108
H          0.57265        2.56035       -1.69797
H          2.50818        3.21907        2.87688
H          2.81376        0.77772       -2.05788
H         -2.96637        5.19200        2.66519
H         -3.44115        4.71212       -0.17734
H         -8.21641        6.12486        0.19812
H         -5.00320        4.70277       -1.65006
H         -7.94294        5.47191       -1.91816
H         -5.96349        4.62554       -3.89569
H         -9.70382        4.57293       -3.16931
H         -9.15758        5.27242       -7.59129
H         -5.69670        4.99413       -6.03722
H         -7.24981        6.47565       -8.00810
H         -4.27128        5.75624       -7.96614
H         -4.61730        9.86937      -13.71683
H         -3.21161       11.99433      -14.44396
H         -1.28154       13.40183      -13.60185
H          0.68309       14.13066      -12.48950
H          2.82086       14.09686      -11.12114
H          3.85412       12.73677       -9.05712
H          2.68032       11.76774       -8.00254
