106

C        -12.70488      -10.82217       -5.41366
C        -11.87959      -11.13208       -4.37782
C        -10.76974      -12.01537       -4.52582
N         -9.87584      -12.74145       -4.65323
C        -12.12526      -10.68391       -3.05121
N        -12.32395      -10.33437       -1.96196
C        -12.67194      -11.39913       -6.79445
C        -13.92832      -11.18417       -7.36967
C        -14.30872      -11.58087       -8.63857
C        -13.39215      -12.36380       -9.35528
C        -12.12778      -12.61580       -8.79712
C        -11.72036      -12.08589       -7.54027
S        -11.21837      -13.67239       -9.82286
C        -12.50888      -13.84349      -10.90009
C        -13.56909      -13.03142      -10.60969
Br       -12.51371      -15.04784      -12.33350
C        -14.82688      -10.52066       -6.43576
O        -16.03439      -10.47359       -6.54061
C        -13.95292      -10.03515       -5.33221
C        -14.29382       -8.96526       -4.59990
C        -15.50648       -8.17667       -4.79341
C        -16.02328       -7.31300       -3.91237
C        -17.12659       -6.41554       -4.17427
C        -17.19375       -5.40907       -3.28891
C        -16.12244       -5.46258       -2.30340
S        -15.38459       -7.05323       -2.31779
C        -15.60414       -4.42513       -1.61818
C        -16.05210       -3.05254       -1.67406
C        -15.13675       -2.17342       -1.25036
C        -13.89427       -2.80926       -0.82513
S        -14.09807       -4.52808       -0.69919
C        -12.75338       -2.14389       -0.61913
C        -11.46825       -2.74495       -0.24271
C        -11.15821       -2.90543        1.10196
C         -9.90640       -3.42559        1.46827
N         -9.68354       -3.50968        2.88946
O         -9.36492       -2.46089        3.46635
O         -9.85386       -4.61101        3.42748
C         -8.92911       -3.80488        0.53206
C         -9.28824       -3.65178       -0.82346
C        -10.53509       -3.13120       -1.20698
C         -7.57532       -4.35860        0.77920
C         -6.95228       -4.56805        1.94900
C         -5.66606       -5.15591        2.04451
O         -4.86554       -4.95599        3.16465
C         -4.95471       -6.00172        1.23806
C         -5.03585       -6.70534       -0.00414
O         -5.93169       -6.68501       -0.83182
N         -3.85606       -7.40855       -0.07486
C         -3.01254       -7.19991        0.99461
O         -1.89604       -7.66562        1.13546
C         -3.73766       -6.30971        1.85719
C         -3.67255       -5.66526        3.06867
C         -2.70574       -5.62380        4.11324
C         -1.68212       -6.48585        4.14585
C         -0.58783       -6.55477        5.06232
C          0.65848       -6.64394        4.47170
S          1.90597       -6.72932        5.59547
C          0.80598       -6.66965        6.90433
C         -0.53103       -6.60714        6.52045
C         -1.49238       -6.62797        7.58961
C         -2.99013       -6.78407        7.31969
C         -3.46484       -8.23343        7.40048
C         -1.04246       -6.57817        8.99862
C         -2.10180       -6.27301       10.05938
C         -2.27530       -4.76725       10.24985
C          0.35967       -6.69841        9.33056
C          1.15246       -6.83046       10.57126
C          2.51037       -6.85575       10.31186
S          2.88024       -6.78995        8.67203
C          1.23003       -6.72038        8.24314
C          0.69053       -6.98853       11.92740
C          1.45346       -7.10314       13.02799
H        -15.30301      -11.35934       -9.01519
H        -10.71758      -12.29201       -7.18262
H        -14.47724      -12.97558      -11.19859
H        -13.60268       -8.57628       -3.85545
H        -15.99104       -8.24352       -5.76618
H        -17.77903       -6.51724       -5.03212
H        -17.90877       -4.60263       -3.35308
H        -17.01660       -2.75699       -2.06401
H        -15.26492       -1.10693       -1.24569
H        -12.71802       -1.06742       -0.74235
H        -11.87843       -2.62347        1.86673
H         -8.59343       -3.93597       -1.61570
H        -10.76341       -3.03116       -2.26672
H         -7.04045       -4.61307       -0.13574
H         -7.37617       -4.30502        2.90752
H         -3.61036       -7.99627       -0.85196
H         -2.84506       -4.88022        4.89285
H         -1.57277       -7.18071        3.32195
H          0.89318       -6.65615        3.41488
H         -3.25635       -6.41760        6.33711
H         -3.58179       -6.14295        7.97881
H         -4.50459       -8.27079        7.74478
H         -2.86055       -8.84800        8.07456
H         -3.44011       -8.69920        6.40832
H         -1.86100       -6.72992       11.01270
H         -3.06391       -6.73166        9.81965
H         -1.40098       -4.32833       10.74273
H         -3.14995       -4.56018       10.87573
H         -2.41635       -4.24544        9.29660
H          3.33347       -6.94237       11.00500
H         -0.37057       -7.07210       12.10656
H          2.53700       -7.06742       13.01329
H          0.99834       -7.25506       14.00157
