100

C        -10.28118        2.84152        6.17191
C        -11.41132        3.20823        6.82602
C        -11.54799        3.12502        8.24450
N        -11.66663        3.06077        9.39509
C        -12.55846        3.74605        6.17247
N        -13.49967        4.18386        5.65686
C         -9.02006        2.32659        6.81097
C         -8.02226        2.27545        5.83951
C         -6.71111        1.86735        6.06555
C         -6.37085        1.44452        7.36365
C         -7.36594        1.45477        8.35171
C         -8.69592        1.89287        8.09512
S         -6.74101        0.86683        9.85423
C         -5.20495        0.62116        9.19663
C         -5.11899        0.96376        7.87498
Br        -3.76012       -0.05939       10.17562
C         -8.53662        2.65587        4.52839
O         -7.84604        2.69217        3.53068
C        -10.00379        2.94709        4.71021
C        -10.82259        3.17830        3.66637
C        -10.36258        3.18218        2.31705
S         -9.83856        4.68248        1.69611
C         -9.30477        4.04246        0.17531
C         -9.48229        2.66420        0.19340
C        -10.22819        2.18838        1.36341
C        -10.65904        0.84784        1.49328
S        -11.73494        0.23311        2.74734
C        -10.20476        0.01182        0.44963
C         -9.41530        0.46491       -0.64473
C         -9.05143        1.81379       -0.84143
C         -8.79682        4.93174       -0.84059
C         -8.73475        6.26235       -0.65688
C         -8.28422        7.23444       -1.61962
C         -7.78607        8.45049       -1.30575
C         -7.44820        8.92131        0.09266
C         -7.44313        9.41911       -2.40872
N         -8.21133       10.63448       -2.24862
C         -8.16590       11.70727       -3.09815
C         -8.89593       12.82492       -3.01833
C         -8.75926       13.91650       -3.96036
C         -9.74975       14.43712       -4.69950
C         -9.59870       15.55770       -5.59704
C        -10.73212       15.90262       -6.22465
C        -11.86718       15.05488       -5.89872
S        -11.38440       13.83090       -4.72397
C        -13.10722       15.14189       -6.41717
C        -13.58090       16.13639       -7.36243
C        -14.83455       15.92897       -7.79010
C        -15.44224       14.74047       -7.23808
S        -14.39708       13.99367       -6.05920
C        -16.63070       14.25263       -7.62557
C        -17.21905       13.03070       -7.11914
C        -17.57132       11.92643       -7.79462
C        -17.57485       11.49554       -9.20491
C        -17.95819       12.21732      -10.28647
C        -18.01065       11.67106      -11.60320
N        -18.05203       11.23826      -12.67638
C        -18.45598       13.54694      -10.19925
N        -18.89175       14.63268      -10.16837
C        -17.36635       10.00966       -9.19181
C        -17.52299        9.55808       -7.87830
C        -17.73803       10.68646       -6.96230
O        -17.96355       10.60385       -5.77311
C        -17.45177        8.22227       -7.49495
C        -17.23192        7.25998       -8.50400
C        -17.05763        7.69921       -9.82492
C        -17.09514        9.07358      -10.18526
S        -16.81558        6.36217      -10.89536
C        -16.96115        5.24529       -9.63807
C        -17.15319        5.82772       -8.41358
Br       -16.87603        3.39116       -9.89622
H         -5.98707        1.85970        5.25460
H         -9.40923        1.85183        8.90934
H         -4.21671        0.87400        7.28141
H        -11.88127        3.37111        3.77190
H        -12.43841       -0.57686        1.93993
H        -10.46937       -1.04615        0.47132
H         -9.09068       -0.27551       -1.37725
H         -8.47260        2.11513       -1.70499
H         -8.46301        4.49818       -1.78005
H         -9.08326        6.71431        0.26636
H         -8.42847        6.96464       -2.66470
H         -7.28805        8.09826        0.79631
H         -8.23933        9.56434        0.49211
H         -6.51706        9.50084        0.08378
H         -7.66828        8.98123       -3.38880
H         -6.37038        9.63842       -2.38742
H         -8.76002       10.74475       -1.40121
H         -7.45906       11.57238       -3.91491
H         -9.64425       12.93785       -2.23760
H         -7.75772       14.33433       -4.03530
H         -8.65519       16.06672       -5.73947
H        -10.78688       16.71980       -6.92980
H        -12.97874       16.96871       -7.69753
H        -15.34102       16.56349       -8.50500
H        -17.20128       14.82888       -8.34175
H        -17.22773       12.98129       -6.02677
H        -17.57199        7.93763       -6.45314
H        -16.92391        9.33870      -11.22263
H        -17.25755        5.27098       -7.48941
