93

C        -10.22741        4.35624        1.39841
C        -11.39126        4.16941        0.73992
C        -12.63762        4.68051        1.21391
N        -13.64747        5.10325        1.60842
C        -11.46196        3.51198       -0.52386
N        -11.53195        2.98963       -1.55702
C        -10.03899        5.14246        2.65696
C         -8.69120        5.48318        2.76792
C         -8.14087        6.19711        3.82327
C         -9.00191        6.56125        4.87658
C        -10.35854        6.20979        4.79138
C        -10.90079        5.50313        3.68528
S        -11.21925        6.73394        6.19561
C         -9.82364        7.38141        6.88965
C         -8.71015        7.23948        6.10731
Br        -9.80066        8.20496        8.57113
C         -7.91126        4.88892        1.68315
O         -6.73933        5.11918        1.47800
C         -8.85800        3.98283        0.95042
C         -8.44837        2.94354        0.20449
C         -7.07545        2.60390        0.02953
C         -6.24343        1.73865        0.72954
C         -4.88719        1.71936        0.19940
C         -3.74761        0.94087        0.55551
C         -2.54812        1.02959       -0.16638
C         -2.44924        1.91191       -1.23558
C         -3.53647        2.71273       -1.59441
C         -4.74968        2.58525       -0.88617
S         -6.21567        3.39872       -1.23114
C         -1.43535        0.19401        0.18722
N         -0.53866       -0.48975        0.46698
C         -6.63549        0.89977        1.92180
O         -5.71648        0.57342        2.91614
C         -7.80824        0.28337        2.26612
C         -9.14755       -0.01027        1.84449
O         -9.72494        0.33092        0.82950
N         -9.66696       -0.81228        2.83943
C         -8.78542       -1.09206        3.85439
O         -8.98850       -1.77661        4.83969
C         -7.59263       -0.40556        3.47056
C         -6.29588       -0.24627        3.87782
C         -5.58558       -0.76482        4.99016
C         -5.88558       -1.96600        5.50427
C         -5.18573       -2.53140        6.62873
C         -4.55308       -3.72056        6.61585
C         -4.42506       -4.59450        5.39237
C         -3.83755       -4.21034        7.84847
N         -4.43068       -5.45243        8.30266
C         -4.01716       -6.70378        7.93161
C         -4.53733       -7.88229        8.29414
C         -4.00565       -9.13945        7.81273
C         -2.75445       -9.59466        7.97999
C         -1.58633       -9.04040        8.67774
C         -1.58303       -8.44743        9.89600
C         -0.44107       -7.80646       10.44962
N          0.48456       -7.24789       10.87593
C         -2.69630       -8.58266       10.77711
N         -3.54864       -8.79020       11.53940
C         -0.37805       -9.60930        8.01152
C         -0.80239      -10.65861        7.18501
C         -2.27453      -10.72920        7.13518
O         -2.93726      -11.52301        6.50146
C          0.06226      -11.53377        6.53972
C          1.44792      -11.36591        6.75975
C          1.88028      -10.29723        7.56041
C          0.98372       -9.38697        8.17335
S          3.60202      -10.28575        7.70836
C          3.75522      -11.67609        6.76554
C          2.55927      -12.15230        6.29929
Br         5.40316      -12.48736        6.39993
H         -7.07676        6.41871        3.84780
H        -11.95189        5.23762        3.70165
H         -7.72227        7.58508        6.38890
H         -9.14987        2.26790       -0.27048
H         -3.81708        0.23359        1.37962
H         -1.52888        1.98039       -1.81345
H         -3.45673        3.40257       -2.43127
H        -10.58870       -1.21428        2.80224
H         -4.75922       -0.17988        5.38471
H         -6.66438       -2.59787        5.08316
H         -5.21201       -1.93318        7.53847
H         -4.67945       -4.07436        4.46421
H         -5.07958       -5.46784        5.47427
H         -3.39219       -4.94266        5.28110
H         -3.89907       -3.47763        8.66171
H         -2.76997       -4.34056        7.63348
H         -5.36411       -5.37938        8.70116
H         -3.16832       -6.67241        7.24932
H         -5.40460       -7.93164        8.94817
H         -4.70624       -9.71107        7.20156
H         -0.32403      -12.34470        5.92818
H          1.38994       -8.59004        8.78498
H          2.46163      -13.03307        5.67608
