126

C         -1.48484        5.82626       -4.51668
C         -1.32139        7.02080       -3.90769
C         -2.17771        8.11529       -4.18356
N         -2.89178        8.98468       -4.39561
C         -0.25509        7.30832       -3.01524
N          0.63460        7.58497       -2.31842
C         -2.25267        5.62425       -5.75393
C         -1.48716        4.76561       -6.55550
C         -1.81408        4.50205       -7.87010
C         -3.00810        5.04527       -8.37249
C         -3.86439        5.80141       -7.51721
C         -3.46980        6.10194       -6.20456
C         -5.10259        6.24431       -8.00046
C         -5.48344        5.99113       -9.31751
C         -4.62378        5.30692      -10.17213
C         -3.39694        4.83214       -9.70268
C         -0.40663        4.14471       -5.74400
O          0.42725        3.34697       -6.11067
C         -0.65046        4.64234       -4.35150
C         -0.43245        3.84364       -3.28953
C         -1.05276        4.02349       -2.00717
S         -2.21084        5.25937       -1.66559
C         -2.47515        4.85760       -0.05803
C         -1.76617        3.72993        0.23223
C         -0.98398        3.30647       -0.85247
C         -0.25365        2.15500       -0.45520
C         -0.50338        1.77400        0.87444
C          0.11739        0.69993        1.62959
O         -0.38215        0.09240        2.56734
O          1.39629        0.54004        1.18765
C          2.33641        0.00711        2.12538
S         -1.69236        2.73731        1.72472
C         -3.34776        5.61724        0.78881
C         -3.28858        5.78666        2.14457
C         -4.30398        6.65690        2.72625
C         -4.55567        7.06788        4.07359
C         -3.67249        6.58626        5.21295
C         -3.94528        6.34639        6.56169
C         -2.82732        5.89383        7.33290
C         -1.68717        5.79952        6.57625
S         -1.98904        6.26412        4.97093
C         -0.30749        5.39517        6.96995
Cl        -2.96129        5.52598        9.00057
C         -5.68016        7.90387        4.33921
C         -6.54980        8.35414        3.33009
C         -6.24829        8.02168        1.96804
C         -5.15614        7.13489        1.71094
S         -4.69123        6.43090        0.19900
C         -7.07742        8.58427        0.81522
C         -6.98396        8.43223       -0.56915
C         -7.97036        9.13936       -1.33023
C         -8.81884        9.86150       -0.53638
S         -8.40932        9.65374        1.07634
C         -9.95964       10.75244       -0.88822
Cl        -8.04288        9.06678       -3.03478
C         -7.66871        9.06505        3.94181
C         -7.62596        9.24386        5.30578
S         -6.17058        8.55805        5.86177
C         -8.55543        9.89606        6.20170
C         -9.31967       10.91483        5.74837
C        -10.22821       11.63368        6.60761
C        -10.38603       11.31735        8.02943
C         -9.74447       10.33386        8.65246
S         -8.62856        9.27794        7.85902
C        -11.32159       12.23235        8.54890
C        -11.75089       13.06818        7.54698
C        -12.66838       14.03486        7.98940
C        -12.90371       13.87308        9.34894
S        -12.00160       12.55887       10.03789
C        -11.05798       12.68357        6.33875
C        -11.23162       13.32619        5.06400
C        -10.23893       13.94808        4.40912
C        -10.42386       14.59534        3.12986
C        -11.26363       15.61070        2.87388
C        -11.60278       16.25459        1.58701
C        -10.78877       16.41676        0.51553
C        -11.17747       17.13959       -0.64794
N        -11.49389       17.71934       -1.60063
C         -9.44688       15.93073        0.49080
N         -8.36379       15.52343        0.46978
C        -12.95767       16.85567        1.76908
C        -13.27404       16.82819        3.13341
C        -12.21753       16.16174        3.89826
O        -12.18798       16.08098        5.10798
C        -14.46635       17.29674        3.66064
C        -15.41932       17.80512        2.77595
C        -15.14153       17.83557        1.38025
C        -13.90664       17.35667        0.88798
C        -16.12105       18.33435        0.50840
C        -17.34951       18.78653        0.99504
C        -17.61728       18.75029        2.36042
C        -16.65690       18.26480        3.24715
H         -1.17389        3.86639       -8.47327
H         -4.11908        6.69321       -5.56355
H         -5.78752        6.78887       -7.35291
H         -6.44985        6.33603       -9.67706
H         -4.91387        5.13338      -11.20547
H         -2.74862        4.29103      -10.38873
H          0.14256        2.92547       -3.43802
H          0.43807        1.60449       -1.08166
H          2.76575       -0.91856        1.73313
H          1.92154       -0.16509        3.12338
H          3.13929        0.74608        2.21388
H         -2.50672        5.28557        2.68712
H         -4.91176        6.47403        7.02776
H          0.23006        6.25086        7.39225
H          0.26592        5.02967        6.11033
H         -0.32738        4.59201        7.71255
H         -6.24773        7.83375       -1.07683
H         -9.59365       11.74338       -1.17629
H        -10.65307       10.88724       -0.04790
H        -10.53723       10.33782       -1.71801
H         -8.53315        9.42725        3.41373
H         -9.26399       11.26278        4.72203
H         -9.91054       10.14776        9.70685
H        -13.12344       14.81002        7.38541
H        -13.55213       14.45907        9.98559
H        -12.24422       13.32734        4.66620
H         -9.23392       13.97890        4.82858
H         -9.82193       14.14372        2.34510
H        -14.65006       17.23569        4.73001
H        -13.74210       17.36779       -0.18477
H        -15.93951       18.37276       -0.56419
H        -18.09974       19.16552        0.30526
H        -18.57622       19.09797        2.73682
H        -16.88817       18.24104        4.31038
