91

C         -0.12912        2.10241        0.27935
C         -0.60508        3.13991        1.08050
F         -0.16412        4.38738        0.86816
C         -1.52823        2.89147        2.08560
F         -1.99433        3.89518        2.84105
C         -1.97771        1.59924        2.32149
C         -1.49880        0.53908        1.54026
C         -0.57097        0.78424        0.48316
C         -0.12273       -0.28447       -0.33483
C         -0.56722       -1.58036       -0.09354
C         -1.44416       -1.77619        0.97805
C         -1.92919       -0.76094        1.79029
C         -1.82085       -3.18135        1.09195
O         -2.33879       -3.66850        2.07434
C         -1.37072       -3.83276       -0.18000
C         -0.35091       -2.91090       -0.75329
C          0.68252       -3.24256       -1.56723
C          0.90105       -4.57645       -2.02851
N          1.07371       -5.65458       -2.40978
C          1.67449       -2.30192       -1.96717
N          2.47675       -1.52780       -2.29225
C         -1.93403       -4.93555       -0.71524
C         -3.01396       -5.68396       -0.14234
C         -4.14124       -5.27854        0.54505
C         -5.02979       -6.34397        0.88737
S         -6.54104       -5.96471        1.71957
C         -7.56722       -5.50800        0.31115
C         -4.57959       -7.59204        0.47762
S         -3.04236       -7.39480       -0.31099
C         -5.16750       -8.96261        0.59768
C         -5.73967       -9.50235        1.77726
C         -6.37165      -10.81519        1.81059
N         -6.99727      -11.22812        2.93417
C         -7.03307      -10.40074        3.99313
C         -6.35881       -9.20958        4.00150
N         -5.69564       -8.76720        2.91128
F         -6.37744       -8.44098        5.09810
F         -7.80694      -10.75782        5.02537
C         -6.37023      -11.70226        0.70779
C         -5.76872      -11.21019       -0.48190
C         -5.18823       -9.81691       -0.54829
N         -4.73475       -9.52557       -1.78154
S         -4.88233      -10.87457       -2.71427
N         -5.64609      -11.87024       -1.64763
C         -6.88777      -13.09796        0.73695
C         -6.43894      -14.23926        0.08715
C         -7.10761      -15.42976        0.50970
S         -6.78148      -16.98927       -0.24427
C         -5.41642      -17.59462        0.76487
C         -7.98610      -15.20181        1.55555
S         -8.31924      -13.50397        1.60316
C         -8.70385      -16.12046        2.38272
C         -9.02441      -15.91362        3.66888
C        -10.08937      -16.78109        4.27784
O        -10.39700      -17.91445        3.97641
C        -10.75838      -15.91743        5.27328
C        -11.96191      -16.16538        5.90958
C        -12.54141      -15.12104        6.64261
C        -11.90681      -13.83957        6.68428
C        -12.54196      -12.78234        7.35103
C        -13.75569      -12.99284        7.99723
C        -14.35094      -14.24658        7.99015
C        -13.75885      -15.30761        7.31274
F        -15.50949      -14.44551        8.63318
F        -14.34490      -11.97051        8.63213
C        -10.66244      -13.64175        6.05808
C        -10.07060      -14.70459        5.38699
C         -8.80374      -14.82175        4.62482
C         -7.62667      -14.26332        4.98166
C         -6.39474      -14.60521        4.34557
N         -5.38192      -14.88910        3.85613
C         -7.50878      -13.40813        6.12202
N         -7.42128      -12.73751        7.06440
H          0.59125        2.34269       -0.49857
H         -2.70045        1.43597        3.11719
H          0.55540       -0.05572       -1.15176
H         -2.63455       -0.99612        2.58348
H         -1.60039       -5.29479       -1.68622
H         -4.33653       -4.24327        0.79867
H         -8.60034       -5.38893        0.64755
H         -7.53440       -6.29642       -0.44416
H         -7.23409       -4.56485       -0.13133
H         -5.63605      -14.23792       -0.63993
H         -5.06586      -18.54361        0.34761
H         -5.74787      -17.77052        1.79093
H         -4.58274      -16.88820        0.76164
H         -9.05407      -17.03342        1.90119
H        -12.44711      -17.13088        5.79784
H        -12.10564      -11.78683        7.37932
H        -14.26008      -16.27210        7.31773
H        -10.19508      -12.66090        6.07680
