96

C         -7.22766       -1.51997       -4.25709
C         -6.88216       -1.89058       -5.51628
C         -7.15744       -3.18976       -6.03866
N         -7.38412       -4.24519       -6.46225
C         -6.28904       -0.98568       -6.44266
N         -5.79367       -0.24622       -7.18816
C         -7.97095       -2.36488       -3.27192
C         -8.57311       -1.51529       -2.34357
C         -9.36044       -1.94467       -1.28424
C         -9.51220       -3.33454       -1.10301
C         -8.87471       -4.20625       -2.00058
C         -8.10266       -3.74092       -3.10085
S         -9.15514       -5.85491       -1.55569
C        -10.08393       -5.40696       -0.21805
C        -10.22227       -4.05268       -0.08285
Br       -10.84150       -6.63843        0.97341
C         -8.17535       -0.12160       -2.56700
O         -8.59350        0.82796       -1.94235
C         -7.15380       -0.15728       -3.66926
C         -6.28608        0.84714       -3.89111
C         -6.29361        2.07866       -3.16136
S         -7.16797        3.41582       -3.79125
C         -6.68039        4.48377       -2.52232
C         -5.85525        3.81076       -1.63067
C         -5.66326        2.42935       -1.97782
S         -4.70574        1.28347       -1.01406
C         -4.48160        2.15771        0.47106
O         -4.71004        1.78123        1.60217
C         -3.80786        3.45190        0.07328
O         -2.61713        3.66858       -0.00637
S         -5.12411        4.54586       -0.18766
C         -7.18744        5.82240       -2.56806
C         -6.45888        6.89243       -2.21310
C         -6.92687        8.26700       -2.22285
C         -7.98246        8.77931       -1.57067
C         -8.31358       10.18599       -1.54440
C         -9.28773       10.49478       -0.67555
C         -9.79404        9.35031        0.06296
S         -9.07938        7.86758       -0.57022
C        -10.60799        9.38098        1.13498
C        -11.14745       10.56422        1.77992
C        -11.70836       10.31932        2.97318
C        -11.65897        8.92580        3.35584
S        -11.06895        7.94202        2.04359
C        -11.98465        8.47215        4.57462
C        -11.88326        7.10227        4.95137
S        -13.24872        6.10230        4.76162
C        -12.50104        4.72665        5.49786
C        -11.18469        5.03862        5.82085
C        -10.83290        6.39220        5.50143
S         -9.23995        7.10344        5.80029
C         -8.61219        6.02093        6.99782
O         -8.22035        6.29732        8.11297
C         -8.53215        4.67154        6.31949
O         -7.54850        4.18253        5.80315
S        -10.06658        3.90630        6.60228
C        -13.23548        3.49719        5.65066
C        -14.57464        3.49060        5.77586
C        -15.43887        2.34063        5.89566
C        -15.57096        1.29251        5.07265
C        -14.86110        0.84692        3.86880
C        -14.44474        1.61422        2.83222
C        -13.71929        1.08604        1.72616
N        -13.09788        0.64653        0.85078
C        -14.81204        2.99163        2.71080
N        -15.16340        4.08274        2.56524
C        -14.96947       -0.64488        3.86041
C        -15.98709       -1.00768        4.75178
C        -16.44289        0.16086        5.51919
O        -17.30444        0.16971        6.37279
C        -16.44823       -2.30659        4.92733
C        -15.81150       -3.32806        4.18979
C        -14.73756       -2.98534        3.35177
C        -14.30533       -1.64579        3.16492
S        -14.05358       -4.39257        2.61728
C        -15.20143       -5.40307        3.33123
C        -16.08131       -4.73934        4.14327
Br       -15.26157       -7.25177        3.03631
H         -9.80523       -1.22798       -0.59860
H         -7.61708       -4.46892       -3.74230
H        -10.78179       -3.57581        0.71334
H         -5.48994        0.75992       -4.62343
H         -8.20709        5.96145       -2.92442
H         -5.41637        6.79170       -1.92259
H         -6.26142        8.94727       -2.75180
H         -7.79353       10.91765       -2.14745
H         -9.63295       11.50567       -0.51197
H        -11.06921       11.55744        1.36156
H        -12.12827       11.08467        3.61171
H        -12.32693        9.16310        5.33930
H        -12.67479        2.56682        5.66492
H        -15.13172        4.42500        5.83478
H        -16.08592        2.39057        6.77518
H        -17.25912       -2.52082        5.61883
H        -13.47330       -1.45070        2.49786
H        -16.88576       -5.22214        4.68611
