99

C        -16.54981        7.83133       -3.43759
C        -17.77111        7.52374       -3.94184
C        -17.96913        6.61455       -5.02067
N        -18.13914        5.91203       -5.92892
C        -18.98035        8.08825       -3.44377
N        -19.97169        8.51724       -3.02063
C        -16.24478        8.95009       -2.48605
C        -14.87881        8.93430       -2.18988
C        -14.23090        9.90863       -1.43540
C        -14.99028       11.02126       -1.00940
C        -16.36151       11.04885       -1.30069
C        -17.01348       10.00979       -2.01211
S        -17.09260       12.50643       -0.72770
C        -15.61477       13.10360       -0.17510
C        -14.57731       12.22519       -0.34069
Br       -15.41559       14.80943        0.57243
C        -14.20301        7.84036       -2.90060
O        -13.01749        7.57984       -2.84855
C        -15.25564        7.16853       -3.72606
C        -14.93343        6.14117       -4.52457
N        -13.70296        5.56091       -4.77935
C        -13.44460        4.53232       -5.64708
S        -14.63612        3.33145       -6.03377
C        -13.60037        2.55263       -7.10378
N        -14.08688        1.43903       -7.84756
O        -14.00062        1.52241       -9.07910
O        -14.52059        0.47408       -7.20597
C        -12.35659        3.12191       -7.18791
C        -12.25046        4.25706       -6.31741
C        -11.07836        5.08070       -6.19704
C         -9.80479        4.67277       -6.35859
C         -8.60284        5.52375       -6.18919
C         -7.39372        5.28953       -6.87794
C         -6.24739        6.14641       -6.72489
N         -5.06852        5.81151       -7.29213
C         -4.99486        4.66262       -8.00793
C         -6.12563        3.89593       -8.25151
N         -7.31831        4.21150       -7.68894
C         -6.08566        2.65698       -9.09465
C         -3.62419        4.20508       -8.40888
C         -6.27612        7.33603       -5.96100
C         -7.40070        7.47453       -5.09809
C         -8.58114        6.56096       -5.21590
N         -9.54445        6.85738       -4.32489
S         -9.01066        8.12084       -3.40906
N         -7.54936        8.39513       -4.12701
N         -5.24703        8.30653       -6.13510
C         -5.35152        9.65548       -5.96764
S         -3.99662       10.52363       -5.32731
C         -4.83494       11.99350       -5.33771
N         -4.23708       13.20797       -4.84990
O         -4.93633       14.22428       -4.91303
O         -3.08022       13.15993       -4.41238
C         -6.08716       11.88535       -5.88769
C         -6.36557       10.54908       -6.32352
C         -7.54040       10.21258       -7.08314
C         -8.18002       11.06647       -7.89972
C         -9.33674       10.72053       -8.68682
C         -9.43146       10.79708      -10.02127
C         -8.48428       11.08460      -11.10986
C         -7.19843       10.66446      -11.21478
C         -6.37873       10.93128      -12.34691
N         -5.70507       11.15306      -13.26346
C         -6.58919        9.78554      -10.27229
N         -6.06106        9.01652       -9.58311
C         -9.29487       11.62753      -12.24443
C        -10.64623       11.40856      -11.95771
C        -10.81129       10.86239      -10.60167
O        -11.86399       10.59833      -10.05923
C        -11.68193       11.67552      -12.84486
C        -11.33814       12.16218      -14.12555
C         -9.98922       12.42775      -14.40568
C         -8.95381       12.20056      -13.46463
S         -9.79296       13.02205      -16.01666
C        -11.44090       12.86429      -16.34232
C        -12.16892       12.43174      -15.26652
Br       -12.19497       13.23894      -18.01526
H        -13.16086        9.85153       -1.25526
H        -18.06893       10.12673       -2.22528
H        -13.55662       12.43575       -0.04478
H        -15.70014        5.66100       -5.11547
H        -12.91849        6.04459       -4.32491
H        -11.57535        2.76036       -7.84599
H        -11.27014        6.12200       -5.94622
H         -9.59167        3.64436       -6.64310
H         -5.66343        2.87549      -10.08098
H         -7.09438        2.26007       -9.25004
H         -5.48634        1.88210       -8.60759
H         -2.87367        4.96661       -8.17402
H         -3.56883        3.99025       -9.47915
H         -3.36375        3.30095       -7.84628
H         -4.33164        7.87079       -6.24237
H         -6.75755       12.72946       -6.00470
H         -7.88800        9.18663       -7.06565
H         -7.84246       12.09514       -8.00532
H        -10.23796       10.53268       -8.09807
H        -12.71395       11.47590      -12.56979
H         -7.93599       12.44196      -13.74820
H        -13.24138       12.27933      -15.28512
