121

C        -15.03048       -2.19257        0.33988
C        -15.53948       -2.30614       -0.95250
F        -15.91891       -1.20276       -1.61005
C        -15.64058       -3.54799       -1.56840
F        -16.08593       -3.64603       -2.82803
C        -15.27495       -4.69853       -0.88649
C        -14.77868       -4.60764        0.41879
C        -14.61267       -3.33371        1.04278
C        -14.00474       -3.24255        2.32407
C        -13.57361       -4.40460        2.96128
C        -13.81002       -5.62931        2.32918
C        -14.40908       -5.76747        1.09249
C        -13.18373       -6.72906        3.06506
O        -13.36232       -7.90905        2.85715
C        -12.27783       -6.07315        4.05823
C        -12.77256       -4.67643        4.19172
C        -12.65101       -3.88148        5.28420
C        -11.94635       -4.29175        6.44381
N        -11.32833       -4.62473        7.37725
C        -13.26395       -2.59541        5.35846
N        -13.75849       -1.54531        5.40922
C        -11.14305       -6.64787        4.49583
C        -10.67456       -8.00354        4.22471
C        -11.28511       -9.17037        4.56986
N        -12.51969       -9.28378        5.32070
O        -13.12555      -10.36261        5.23654
O        -12.87446       -8.33434        6.03425
C        -10.55082      -10.32973        4.11847
C         -9.47397       -9.91769        3.43837
C         -9.47186       -8.44621        3.42400
C         -8.51473       -7.71180        2.80883
C         -8.24931       -6.29240        3.03360
C         -7.11125       -5.98069        2.38048
C         -6.66475       -7.13623        1.63147
N         -5.58057       -7.06928        0.66093
O         -5.20213       -8.10304        0.09822
O         -5.07907       -5.95226        0.47422
C         -7.48928       -8.19018        1.82092
C         -7.49543       -9.40690        1.03622
C         -8.57365       -9.79473        0.33703
C         -8.56125      -10.93083       -0.51905
S         -9.50384      -10.81733       -1.96367
C         -8.95643      -12.32668       -2.57921
C         -8.10729      -12.93150       -1.68056
C         -7.94124      -12.16716       -0.46496
C         -7.19775      -12.62578        0.63297
C         -6.57628      -13.87708        0.40701
C         -5.66794      -14.43311        1.47347
C         -6.71682      -14.60102       -0.82408
C         -7.50900      -14.17417       -1.91229
C         -9.51236      -12.77102       -3.80586
C         -8.96712      -12.44312       -4.98885
C         -9.60775      -12.72739       -6.24253
S        -11.09247      -13.59461       -6.32088
C         -9.23062      -12.34237       -7.52186
C         -7.98672      -11.61691       -7.85907
O         -6.93744      -11.68995       -7.23468
C         -8.18471      -10.77797       -9.03241
C         -7.52134       -9.63211       -9.41761
N         -8.20017       -9.09832      -10.48738
C         -7.97050       -7.77122      -11.03854
C         -7.57331       -7.78773      -12.50267
C         -9.20728       -9.95465      -10.87101
C         -9.20987      -11.01758       -9.99067
C        -10.09908      -12.16815       -9.92100
O        -10.66139      -12.64117      -10.89760
C        -10.26328      -12.63145       -8.53022
C        -11.34084      -13.33363       -7.99874
C        -12.54693      -13.89839       -8.52899
C        -13.33866      -13.34787       -9.45722
C        -14.32111      -14.20607      -10.20808
O        -14.85665      -15.22735       -9.83597
C        -14.43156      -13.57081      -11.54355
C        -15.15971      -13.99199      -12.63928
C        -15.03903      -13.24824      -13.82578
C        -14.07351      -12.19607      -13.91528
C        -13.89786      -11.50572      -15.11879
C        -14.73715      -11.77133      -16.19165
C        -15.72847      -12.73796      -16.08800
C        -15.86666      -13.49704      -14.92803
F        -16.57762      -12.93809      -17.10477
F        -14.60199      -11.05766      -17.31725
C        -13.34991      -11.80518      -12.78594
C        -13.62892      -12.42219      -11.58244
C        -13.26225      -12.09610      -10.19164
C        -13.22176      -10.84383       -9.68264
C        -13.32875      -10.61289       -8.28071
N        -13.46862      -10.41594       -7.14658
C        -13.19205       -9.68666      -10.51267
N        -13.12655       -8.75870      -11.20641
H        -14.95765       -1.19826        0.77817
H        -15.36002       -5.65631       -1.39635
H        -13.83862       -2.25841        2.75082
H        -14.51948       -6.75452        0.65211
H        -10.44819       -6.08271        5.11049
H        -10.81239      -11.35229        4.34804
H         -8.70956      -10.57467        3.05799
H         -8.78466       -5.61797        3.66684
H         -6.61301       -5.02248        2.37653
H         -6.55692       -9.95377        0.97034
H         -9.47785       -9.18812        0.35376
H         -7.08913      -12.09952        1.57102
H         -5.76381      -15.52139        1.53644
H         -5.91846      -14.02457        2.45842
H         -4.62980      -14.17451        1.24274
H         -6.17996      -15.54474       -0.93274
H         -7.60481      -14.75231       -2.82201
H        -10.44489      -13.31747       -3.71705
H         -8.03959      -11.87002       -5.00295
H         -6.67956       -9.11903       -8.96783
H         -7.18618       -7.29003      -10.44326
H         -8.89534       -7.20092      -10.89292
H         -6.66930       -8.38456      -12.65844
H         -7.37878       -6.76867      -12.85186
H         -8.36863       -8.21000      -13.12534
H         -9.86023       -9.71365      -11.70163
H        -12.80746      -14.89671       -8.17033
H        -15.82208      -14.84916      -12.55791
H        -13.14506      -10.72874      -15.22345
H        -16.65197      -14.24641      -14.88590
H        -12.61680      -11.00576      -12.84879
