102

C         -3.53494        2.08068       -6.46431
N         -2.70413        2.49002       -7.47375
C         -1.48191        1.94618       -7.22957
N         -0.35501        2.04182       -7.96197
C          0.66282        1.42560       -7.33135
N          1.95782        1.30267       -7.72588
C          2.68364        0.77180       -6.67019
N          1.85072        0.40789       -5.70417
C          0.60213        0.79161       -6.10209
N         -0.56296        0.66295       -5.42449
C         -1.61995        1.26831       -6.02111
N         -2.90992        1.33853       -5.57132
C          4.11353        0.69383       -6.70104
C          4.94799        1.57820       -7.31075
N          4.57036        2.74986       -8.06737
O          3.57483        3.39282       -7.71667
O          5.27243        3.02786       -9.04778
C          6.33504        1.32720       -7.00813
C          6.41229        0.29092       -6.16371
C          5.05996       -0.24187       -5.94734
C          4.78924       -1.36226       -5.22566
C          3.45812       -1.96271       -5.10793
C          3.51985       -2.99453       -4.25889
C          4.88992       -3.15592       -3.84286
N          5.29288       -4.22683       -2.95868
O          6.24024       -4.03838       -2.18204
O          4.63469       -5.27146       -3.02054
C          5.71815       -2.25406       -4.42018
C          7.16658       -2.18156       -4.26485
C          8.02582       -3.20384       -4.48602
N          9.60717       -3.06898       -4.47492
C          9.94118       -2.08370       -3.41708
C         10.41982       -0.78199       -3.65187
S         10.64735       -0.06780       -5.25623
C         10.04614       -1.33609       -6.33390
C          9.96576       -0.98662       -7.69708
C          9.48593       -1.87820       -8.65574
C          9.11286       -3.15413       -8.27406
C          9.21669       -3.52233       -6.93412
C          9.65501       -2.61940       -5.91685
C         10.74990        0.05257       -2.56715
C         10.60249       -0.37793       -1.25124
C         10.11408       -1.65143       -1.00188
C          9.79013       -2.49334       -2.06974
C         10.85875       -4.07446       -4.54480
C         12.25913       -3.48670       -4.47050
C         13.03283       -3.37395       -3.36700
C         14.26841       -2.67239       -3.73127
C         14.14720       -2.39704       -5.17761
C         12.99914       -2.95374       -5.60173
C         15.02579       -1.67435       -6.02429
N         15.73598       -1.06045       -6.70223
C         15.29064       -2.38656       -2.89727
C         16.50198       -1.67004       -3.27552
C         17.33777       -1.60598       -2.21999
C         16.69830       -2.29477       -1.10958
C         15.48308       -2.72168       -1.48678
C         14.59259       -3.38292       -0.61444
N         13.86526       -3.91984        0.11316
C         18.62551       -0.95738       -2.22019
C         19.06017       -0.17333       -3.21782
C         20.30642        0.47104       -3.12944
N         20.44755        1.65227       -3.82010
C         21.69981        2.11368       -3.57955
N         22.27815        3.24555       -4.02557
C         23.53592        3.33870       -3.55413
N         24.44874        4.32492       -3.75925
C         25.58200        3.97172       -3.07598
N         25.45061        2.82286       -2.44509
C         24.17664        2.41606       -2.73092
N         23.55369        1.29216       -2.30463
C         22.28198        1.16126       -2.74856
N         21.40231        0.15730       -2.46508
H         -4.57964        2.36035       -6.43036
H         -2.93418        3.09172       -8.25038
H          2.31460        1.72426       -8.56907
H          7.15636        1.93123       -7.36554
H          7.33540       -0.06182       -5.74255
H          2.55420       -1.68742       -5.61826
H          2.69777       -3.62945       -3.96503
H          7.53779       -1.21023       -3.95429
H          7.60556       -4.18031       -4.76609
H          9.30262       -3.97069       -4.07135
H         10.27152        0.00570       -8.02331
H          9.40702       -1.57337       -9.69554
H          8.73126       -3.86189       -9.00538
H          8.91074       -4.53519       -6.67561
H         11.12822        1.05737       -2.74539
H         10.86407        0.28197       -0.42823
H          9.98424       -1.99498        0.02175
H          9.40875       -3.48467       -1.83207
H         10.80220       -4.73897       -5.41981
H         10.79493       -4.77704       -3.69132
H         12.72631       -3.68262       -2.38069
H         12.64176       -2.97010       -6.62055
H         16.69985       -1.23486       -4.23616
H         17.15210       -2.40691       -0.13498
H         19.24239       -1.09740       -1.33182
H         18.45930        0.00591       -4.10270
H         19.74495        2.11956       -4.37268
H         24.30017        5.15659       -4.31002
H         26.46903        4.59186       -3.07380
