124

C         -9.14217       -3.27779       -0.11060
C        -10.25429       -2.85983       -0.83369
C        -11.47213       -2.61581       -0.16133
C        -12.61573       -2.22025       -0.93434
N        -13.53246       -1.91182       -1.57442
C        -11.56588       -2.78186        1.23947
C        -12.80349       -2.60390        1.93718
N        -13.80173       -2.48644        2.52220
C        -10.44360       -3.20401        1.97360
C         -9.26896       -3.45518        1.27716
C         -8.05523       -4.07825        1.83249
O         -7.83434       -4.30198        3.00441
C         -7.21255       -4.44049        0.64389
C         -7.75983       -3.68138       -0.50171
C         -7.08464       -3.26015       -1.60167
C         -7.68271       -2.41734       -2.58797
N         -8.19271       -1.73300       -3.37191
C         -5.70930       -3.55953       -1.80777
N         -4.59093       -3.80971       -1.99123
C         -6.31470       -5.44297        0.66456
C         -5.96310       -6.23497        1.85556
C         -4.88732       -5.89057        2.67266
C         -3.86642       -4.83722        2.56062
O         -3.87875       -3.98607        1.68938
N         -2.95766       -5.03561        3.58420
C         -3.34904       -6.08540        4.38239
O         -2.85690       -6.58998        5.37455
C         -4.56970       -6.62575        3.80819
C         -5.29481       -7.72029        4.23737
C         -6.36173       -8.07993        3.42991
C         -6.68027       -7.37923        2.25813
C         -7.77811       -8.03279        1.53549
O         -8.17304       -7.69933        0.43228
S         -8.42259       -9.39994        2.42410
C         -7.23098       -9.22387        3.68603
O         -7.12549       -9.95663        4.65255
C         -1.80272       -4.28449        3.72846
C         -0.87064       -4.48913        4.67413
C          0.37921       -3.74035        4.87005
C          1.46164       -4.39114        5.48168
C          2.65109       -3.71913        5.87171
C          2.72316       -2.30661        5.70115
C          1.68112       -1.71547        4.93236
C          0.52048       -2.39939        4.55413
N          3.71505       -1.39476        6.29507
C          3.31595       -0.02772        6.68151
C          2.00498        0.29149        7.09550
C          1.62370        1.61096        7.38372
C          2.56374        2.63531        7.35226
C          3.87562        2.34739        6.99851
C          4.23422        1.04410        6.63277
C          5.10243       -1.77384        6.47218
C          5.77885       -2.54756        5.52052
C          7.11131       -2.93331        5.71406
C          7.81994       -2.49097        6.82910
C          7.19831       -1.65925        7.75111
C          5.84993       -1.32709        7.58455
C          3.69066       -4.66088        6.35843
C          3.68872       -5.21042        7.58307
C          4.65619       -6.20862        8.07527
C          4.64747       -7.56983        7.73868
C          3.84191       -8.36474        6.78651
O          2.94141       -7.89982        6.11228
N          4.31928       -9.66612        6.80385
C          5.29469       -9.81844        7.77277
O          5.91194      -10.79223        8.15793
C          5.51471       -8.48280        8.34806
C          6.43831       -8.12644        9.31068
C          6.48714       -6.77556        9.61895
C          5.63274       -5.83953        9.02112
C          5.87496       -4.49411        9.55510
O          5.18831       -3.52012        9.32616
S          7.22526       -4.46131       10.67062
C          7.39789       -6.19145       10.59933
O          8.17192       -6.84208       11.27731
C          3.87498      -10.64632        5.94077
C          4.33344      -11.90231        5.86611
C          3.86037      -12.85454        4.88374
C          3.35001      -14.06643        5.14285
C          3.22372      -15.06465        4.03265
O          3.25198      -14.86731        2.83726
C          3.12505      -16.37888        4.69542
C          3.01398      -17.60887        4.06601
C          2.95420      -18.75320        4.87154
C          3.08049      -18.63862        6.27435
C          3.19661      -17.37100        6.88432
C          3.15947      -16.23046        6.09291
C          3.04706      -14.77376        6.39275
C          2.40972      -14.26298        7.47546
C          1.83215      -12.95860        7.46314
N          1.28980      -11.93317        7.44227
C          2.10489      -15.03986        8.62806
N          1.87741      -15.69096        9.56028
C          3.06433      -19.80086        7.11966
N          3.05678      -20.72573        7.81814
C          2.72629      -20.02394        4.24355
N          2.51036      -21.03681        3.72293
H        -10.23271       -2.75888       -1.91723
H        -10.49352       -3.36797        3.04541
H         -5.82493       -5.78158       -0.24532
H         -5.02111       -8.27484        5.13068
H         -1.67621       -3.50398        2.98034
H         -0.99942       -5.28124        5.40812
H          1.38080       -5.46503        5.66898
H          1.74183       -0.66239        4.66057
H         -0.27381       -1.84473        4.06236
H          1.24481       -0.48021        7.18565
H          0.59038        1.83449        7.63816
H          2.27681        3.65330        7.60292
H          4.62517        3.13462        6.99238
H          5.25818        0.88309        6.30635
H          5.26577       -2.85991        4.61564
H          7.59586       -3.57379        4.98327
H          8.85396       -2.78831        6.97880
H          7.73921       -1.29330        8.62046
H          5.37358       -0.73381        8.36378
H          4.38915       -4.99156        5.59358
H          2.96635       -4.86155        8.31915
H          7.08714       -8.85599        9.78873
H          3.07772      -10.31852        5.27789
H          5.13253      -12.26463        6.51315
H          4.05666      -12.57211        3.84684
H          2.94756      -17.66650        2.98103
H          3.28988      -17.31644        7.96709
