118

C          5.25736       -4.72763       -5.78671
O          4.36631       -4.10263       -6.58640
C          5.03949       -3.57563       -7.66518
C          6.39560       -3.89026       -7.49801
C          6.54208       -4.61793       -6.27408
C          7.74349       -5.14670       -5.58954
F          7.43527       -5.78783       -4.42917
F          8.41763       -6.04974       -6.34794
F          8.62492       -4.16826       -5.26168
O          7.30983       -3.45382       -8.40230
C          8.51322       -4.20243       -8.47968
C          4.38980       -2.88420       -8.74011
C          3.21592       -2.24416       -8.57652
C          2.45122       -1.50223       -9.61323
C          1.03909       -1.53481       -9.60498
C          0.06255       -2.23084       -8.74004
O          0.39404       -3.00085       -7.85660
N         -1.20497       -1.87073       -9.16610
C         -1.14144       -1.04621      -10.25801
O         -2.02689       -0.52710      -10.90926
C          0.26893       -0.82824      -10.53044
C          0.80758       -0.04547      -11.52648
C          2.19343       -0.00226      -11.55232
C          3.00407       -0.67703      -10.62205
C          4.41613       -0.32086      -10.86075
O          5.35489       -0.57805      -10.12426
S          4.63389        0.61694      -12.32789
C          2.92285        0.77260      -12.55008
O          2.38659        1.42622      -13.42836
C         -2.41740       -2.24563       -8.62611
C         -2.57862       -2.82667       -7.43396
C         -3.84732       -3.22819       -6.85046
C         -4.86088       -2.33454       -6.69201
C         -6.00260       -2.69422       -5.86020
C         -7.04241       -1.94825       -5.38986
C         -7.41354       -0.50990       -5.74433
C         -8.95314       -0.25256       -5.73060
N         -9.39330        1.07673       -6.17289
C         -6.66828        0.52690       -4.86710
N         -5.21094        0.51251       -5.02777
C         -7.73286       -2.84414       -4.44788
C         -8.68222       -2.63694       -3.52040
C         -9.24067       -3.74431       -2.63597
C         -8.57724       -5.09650       -2.85954
C         -7.58294       -5.29948       -3.73564
C         -7.12717       -4.17466       -4.50223
C         -6.06241       -4.06103       -5.30564
C         -5.03287       -5.01993       -5.60814
C         -3.97530       -4.60064       -6.32025
C        -10.74830       -3.89183       -2.73659
C        -11.58379       -3.33534       -3.63177
C        -13.03839       -3.55883       -3.65897
C        -13.90664       -2.46938       -3.83003
C        -13.64893       -1.03261       -4.05708
O        -12.52924       -0.56017       -4.13430
N        -14.87558       -0.40598       -4.14826
C        -15.90263       -1.29854       -3.97217
O        -17.10538       -1.12664       -3.96308
C        -15.28996       -2.61114       -3.81808
C        -15.91611       -3.83242       -3.69748
C        -15.07195       -4.92804       -3.57497
C        -13.67194       -4.81842       -3.55478
C        -13.05404       -6.15945       -3.44870
O        -11.86725       -6.41597       -3.45686
S        -14.26118       -7.42933       -3.31096
C        -15.56634       -6.29322       -3.45736
O        -16.74736       -6.58378       -3.45966
C        -15.10942        0.92721       -4.41598
C        -14.20469        1.77218       -4.93194
C        -14.56855        3.11201       -5.22921
O        -15.40230        3.81947       -4.41571
C        -15.57820        5.08545       -4.89643
C        -14.86116        5.18322       -6.08666
C        -14.18521        3.93043       -6.29426
C        -13.26465        3.51867       -7.38520
F        -12.86426        2.22207       -7.29691
F        -13.82896        3.64356       -8.61321
F        -12.12547        4.25675       -7.39073
O        -14.88796        6.35638       -6.77232
C        -14.14820        6.41907       -7.97832
C        -16.37582        6.05064       -4.21874
C        -16.54515        5.97791       -2.89143
H          4.84184       -5.19322       -4.90200
H          9.08789       -3.83398       -9.33483
H          8.30828       -5.26447       -8.65005
H          9.13579       -4.05172       -7.59399
H          4.90951       -2.89551       -9.69224
H          2.74700       -2.27562       -7.59106
H          0.18382        0.49994      -12.22754
H         -3.28827       -2.01121       -9.23859
H         -1.72280       -3.03943       -6.79627
H         -4.78892       -1.31311       -7.05306
H         -7.09938       -0.34295       -6.78581
H         -9.35351       -0.35469       -4.72401
H         -9.45311       -0.99771       -6.36043
H         -9.03874        1.78751       -5.53360
H        -10.40943        1.12037       -6.06436
H         -6.91461        0.37665       -3.81035
H         -6.98992        1.53842       -5.13315
H         -4.84480       -0.37834       -4.69103
H         -4.79697        1.23318       -4.43964
H         -9.07575       -1.65328       -3.31109
H         -9.02013       -3.45283       -1.59999
H         -8.93516       -5.93681       -2.26736
H         -7.12843       -6.27330       -3.86621
H         -5.09162       -6.03174       -5.22925
H         -3.15858       -5.28797       -6.52905
H        -11.14910       -4.56899       -1.98427
H        -11.19516       -2.64021       -4.37510
H        -16.99792       -3.92704       -3.71684
H        -16.13173        1.25634       -4.23710
H        -13.20786        1.44149       -5.19434
H        -14.22578        7.43704       -8.37161
H        -14.57036        5.75117       -8.73337
H        -13.08649        6.23027       -7.80727
H        -16.83075        6.85297       -4.79052
H        -16.07466        5.20140       -2.29348
H        -17.14853        6.70894       -2.36403
