126

C          5.78433       -8.58504        4.43315
C          6.69300       -8.32738        3.49113
C          6.73132       -7.09785        2.73242
C          6.87331       -7.13264        1.40140
C          6.95019       -6.06552        0.43132
C          7.19590       -4.74915        0.60813
C          7.47618       -3.76822       -0.50780
C          7.97863       -2.42751       -0.32092
C          8.05242       -1.63952        1.01306
O          8.07052       -2.28290        2.05448
C          8.19484       -0.12478        1.05658
C          7.95016        0.71759       -0.02361
S          8.52962        2.30861        0.16951
C          8.77537        2.04625        1.82566
C          8.51600        0.74197        2.23029
C          8.46203        0.39671        3.66889
O          7.66612       -0.43089        4.09595
C          9.23709        1.19260        4.69442
C         10.51590        1.71860        4.46027
C         11.19458        2.41472        5.47316
C         10.61439        2.57470        6.73065
C          9.34495        2.06191        6.97754
C          8.65967        1.37793        5.96369
C          8.52626       -1.81194       -1.46281
C          8.43656       -2.35072       -2.75240
C          7.84961       -3.58902       -2.98541
C          7.37993       -4.26466       -1.84953
C          7.88526       -4.16300       -4.37800
C          8.01490       -5.50394       -4.58383
C          8.32958       -6.05265       -5.90812
C          8.51407       -7.32666       -6.38726
C          8.29694       -8.67281       -5.66297
C          8.44935       -9.98184       -6.51106
N          9.81190      -10.30893       -6.94773
C          9.10769       -8.93351       -4.34815
N          8.67473       -8.22829       -3.14472
C          8.83030       -7.11343       -7.83100
C          8.92902       -7.91808       -8.90951
C          9.11779       -7.40354      -10.34046
C          9.52945       -5.94337      -10.39998
C          9.40601       -5.12005       -9.34735
C          8.95461       -5.68278       -8.10461
C          8.57511       -5.07171       -6.98899
C          8.31450       -3.66502       -6.77593
C          7.92451       -3.26197       -5.55439
C          7.86513       -7.59376      -11.18942
C          7.20381       -8.75502      -11.32019
C          6.01044       -8.99605      -12.14779
C          4.67066       -8.93914      -11.68247
C          4.23154       -8.06770      -10.54749
O          5.08840       -7.72562       -9.73524
C          2.82472       -7.57036      -10.35945
C          2.57553       -6.89862       -9.16302
S          0.94445       -6.53061       -8.87250
C          0.50298       -7.16065      -10.38041
C          1.58781       -7.56454      -11.15641
C          1.24619       -7.97140      -12.53699
O          0.32842       -8.76863      -12.74412
C          1.95516       -7.37131      -13.71665
C          1.42614       -7.62566      -14.99435
C          2.10210       -7.20167      -16.14098
C          3.32715       -6.54980      -16.02266
C          3.84510       -6.27044      -14.76109
C          3.14083       -6.63950      -13.61400
C          3.71972       -9.68699      -12.36177
C          3.98415      -10.19278      -13.62936
C          5.25620      -10.09042      -14.19820
C          6.27430       -9.52654      -13.42900
C          5.51929      -10.58196      -15.55854
C          4.80412      -11.58430      -16.09161
C          4.92399      -12.10280      -17.42609
C          6.06621      -12.52661      -17.97428
C          6.08775      -13.11939      -19.28559
C          7.00008      -12.78339      -20.20261
H          5.78060       -9.53916        4.95177
H          5.00236       -7.87561        4.67831
H          7.43427       -9.09346        3.24051
H          6.64435       -6.16302        3.26990
H          6.92282       -8.12433        0.93026
H          6.86009       -6.48526       -0.56284
H          7.31761       -4.37437        1.61959
H          7.53167        0.48396       -0.99078
H          9.04617        2.89952        2.43476
H         11.01083        1.58872        3.50237
H         12.18720        2.81930        5.28628
H         11.15578        3.09160        7.52244
H          8.89026        2.17947        7.95772
H          7.66673        0.98432        6.17524
H          9.10592       -0.89724       -1.39139
H          8.87996       -1.78246       -3.56643
H          6.94953       -5.24305       -2.03311
H          8.01366       -6.18354       -3.75356
H          7.23287       -8.66599       -5.37982
H          7.77137       -9.95907       -7.36979
H          8.09570      -10.83025       -5.90996
H          9.83900      -11.24977       -7.33698
H         10.46694      -10.29371       -6.16927
H         10.17251       -8.74190       -4.51469
H          9.01739       -9.99683       -4.08685
H          7.69389       -8.42560       -2.95652
H          9.20766       -8.55787       -2.34091
H          8.84074       -8.98921       -8.83875
H          9.93854       -7.97926      -10.79115
H          9.90396       -5.56288      -11.34522
H          9.68595       -4.07592       -9.40539
H          8.33254       -2.98050       -7.61487
H          7.61826       -2.23158       -5.41574
H          7.48090       -6.71508      -11.70212
H          7.57238       -9.64519      -10.81279
H          3.30203       -6.64455       -8.39999
H         -0.54142       -7.16473      -10.66958
H          0.48729       -8.16487      -15.10768
H          1.68346       -7.39923      -17.12449
H          3.87715       -6.25780      -16.91394
H          4.80929       -5.77535      -14.66730
H          3.57693       -6.38098      -12.65521
H          2.73379       -9.86375      -11.94458
H          3.15471      -10.63367      -14.17587
H          7.29819       -9.52615      -13.80769
H          6.30495      -10.08403      -16.12214
H          4.01461      -12.07043      -15.52404
H          3.98522      -12.18862      -17.97053
H          7.00810      -12.45737      -17.43498
H          5.31600      -13.84932      -19.52203
H          7.75186      -12.02657      -20.00344
H          6.98195      -13.23467      -21.18787
