142

C         11.95655       -3.38488      -12.98679
C         11.67526       -4.34080      -13.95376
F         11.19674       -3.94955      -15.14167
C         11.86288       -5.69349      -13.70280
C         12.36818       -6.10626      -12.46819
C         12.66581       -5.16518      -11.47117
C         12.42729       -3.77981      -11.73074
C         12.61643       -2.82141      -10.72429
C         13.00436       -3.24783       -9.46836
C         13.35439       -4.59298       -9.26267
C         13.17913       -5.56512      -10.22654
C         13.93779       -4.75625       -7.90898
O         14.34459       -5.78284       -7.40918
C         13.96601       -3.37038       -7.33186
C         13.04487       -2.57798       -8.14794
C         12.00129       -1.82716       -7.71013
C         11.05407       -1.22771       -8.59436
N         10.29220       -0.73331       -9.31999
C         11.63002       -1.80718       -6.33367
N         11.24608       -1.85162       -5.23970
C         14.92876       -3.05695       -6.45165
C         15.28380       -1.72789       -6.08834
S         14.57205       -1.04121       -4.69259
C         15.42227        0.45046       -4.83841
C         16.30649        0.38707       -5.89414
C         16.23779       -0.86440       -6.60212
N         17.02232       -1.16023       -7.67455
C         17.86426       -0.11546       -8.00660
C         18.72064       -0.38717       -9.22814
N         18.02490       -0.05100      -10.47450
C         17.89791        1.13572       -7.33174
C         18.74260        2.30309       -7.81949
N         20.18812        2.05700       -7.81386
N         17.13250        1.41720       -6.23092
C         15.21771        1.50368       -3.90603
C         14.02339        1.71661       -3.33464
C         13.73204        2.71629       -2.32529
C         14.70834        3.11864       -1.47202
C         14.38070        3.95158       -0.34260
C         15.15074        4.41603        0.67662
C         16.66237        4.44194        0.88347
C         17.21542        3.17684        1.58344
N         16.97696        1.92528        0.86752
C         17.47191        4.81306       -0.39837
N         18.92644        4.89148       -0.19997
C         14.16137        4.89307        1.65261
C         14.26065        5.13680        2.96741
C         13.02029        5.40896        3.81398
C         11.72305        5.57572        3.02984
C         11.63910        5.34958        1.71197
C         12.82681        4.88564        1.05957
C         12.96129        4.29252       -0.12647
C         11.95769        3.93472       -1.09096
C         12.33746        3.17006       -2.12762
C         13.26417        6.58176        4.71018
C         13.00711        7.86251        4.39645
C         13.18277        8.91931        5.32853
S         12.99282        8.65407        7.02240
C         13.31669       10.28808        7.44135
C         13.51541       11.02890        6.29026
C         13.44516       10.25272        5.08517
N         13.63003       10.76688        3.83313
C         13.88415       12.11931        3.86379
C         14.13933       12.74674        2.50428
N         12.98546       12.63874        1.61030
C         13.93810       12.88685        5.05458
C         14.23954       14.37024        5.05570
N         15.67329       14.65936        5.10800
N         13.76039       12.36551        6.30127
C         13.31321       10.61246        8.82971
C         13.48549       11.86483        9.26516
C         13.46903       12.22433       10.65780
C         13.17313       13.44640       11.11480
C         13.59578       13.80327       12.49933
O         13.84882       13.05920       13.42246
C         13.72933       15.26889       12.48380
C         14.22623       16.04362       13.51457
C         14.34387       17.41739       13.29535
C         14.00848       17.96829       12.02089
C         14.15573       19.34482       11.81644
C         14.59447       20.16033       12.85499
C         14.90465       19.63369       14.10173
C         14.78975       18.26231       14.32068
F         14.70856       21.47770       12.64959
C         13.51689       17.14139       10.99197
C         13.33161       15.79147       11.24005
C         12.74053       14.67987       10.45083
C         11.75214       14.80352        9.52133
C         10.95108       13.68592        9.12291
N         10.24008       12.82630        8.82675
C         11.34232       16.06476        9.00572
N         11.02721       17.09330        8.58090
H         11.77744       -2.33899      -13.22145
H         11.61127       -6.41872      -14.47013
H         12.50589       -7.17036      -12.28621
H         12.41416       -1.77257      -10.92371
H         13.41486       -6.60240      -10.00618
H         15.56041       -3.84665       -6.04598
H         18.95911       -1.45805       -9.24071
H         19.68616        0.11833       -9.19494
H         17.14685       -0.57036      -10.48581
H         18.57468       -0.42119      -11.24905
H         18.55634        3.16879       -7.16999
H         18.41149        2.59675       -8.82216
H         20.47319        1.77394       -6.87745
H         20.66535        2.93981       -7.99798
H         16.07112        2.13933       -3.68179
H         13.16247        1.10373       -3.59854
H         15.71304        2.71875       -1.52508
H         16.86066        5.27655        1.57357
H         16.78514        3.09734        2.58792
H         18.29721        3.27998        1.73413
H         15.97193        1.76305        0.81009
H         17.36112        1.15270        1.40899
H         17.13132        5.79313       -0.75495
H         17.29992        4.10357       -1.21008
H         19.15447        5.29985        0.70189
H         19.34405        5.48188       -0.91702
H         15.21199        5.05315        3.48062
H         12.86603        4.53218        4.45860
H         10.83344        5.88457        3.57304
H         10.71462        5.47659        1.16204
H         10.92786        4.24194       -0.95713
H         11.59310        2.84243       -2.84833
H         13.67221        6.31180        5.68113
H         12.65485        8.12873        3.40136
H         15.00509       12.24867        2.05371
H         14.40188       13.80312        2.57179
H         12.74268       11.64670        1.54501
H         13.26240       12.92127        0.67197
H         13.77615       14.80883        5.94821
H         13.76573       14.87557        4.20982
H         16.15113       14.26709        4.30101
H         15.81499       15.66679        5.07656
H         13.12800        9.81718        9.54929
H         13.66709       12.67670        8.56794
H         13.83531       11.46596       11.35057
H         14.50683       15.57979       14.45619
H         13.91778       19.80414       10.86087
H         15.23281       20.29510       14.89742
H         15.03779       17.86058       15.30140
H         13.28353       17.57997       10.02610
