108

C          0.33760       -5.75818        1.31981
C         -1.02022       -5.83191        0.99490
C         -1.87505       -4.75271        1.24255
C         -1.38738       -3.57677        1.81379
C         -0.02959       -3.47842        2.09459
C          0.84182       -4.57587        1.84866
C          2.21895       -4.19992        2.30761
C          3.38922       -4.72888        1.87511
C          3.44424       -5.81139        0.94988
N          3.48095       -6.69633        0.20037
C          4.64256       -4.17344        2.23792
N          5.67445       -3.72001        2.53607
C          2.02875       -2.99936        3.17062
C          0.78657       -2.36575        2.68158
C          0.52106       -1.04484        2.56992
C          1.53464       -0.08224        2.86798
N          2.37565        0.69069        3.07262
C         -0.71913       -0.52902        2.12072
N         -1.75927       -0.13335        1.79114
C          2.65917       -2.81077        4.35517
C          2.32764       -1.93685        5.52801
N          3.25835       -1.44456        6.31419
C          2.55414       -0.75886        7.25555
C          1.13814       -0.85980        6.99863
C          0.39703       -0.16338        8.08430
O         -0.79216       -0.00279        8.24808
C          1.49194        0.27468        8.97292
C          2.75406       -0.13333        8.41396
N          3.75370        0.17259        9.28303
C          3.11778        0.73654       10.27410
C          1.65229        0.87451       10.14390
C          0.91203       -1.64802        5.95428
C         -0.26692       -2.30530        5.50175
C         -1.52574       -1.88940        5.30721
C         -2.28037       -0.61935        5.52999
C         -1.72297        0.66322        5.42208
C         -2.55439        1.77616        5.66651
N         -1.98735        3.00173        5.74297
C         -0.67277        3.16715        5.55866
C          0.10992        2.10490        5.23397
N         -0.40340        0.85671        5.13153
C         -3.94993        1.61487        5.85031
C         -4.48841        0.32800        6.00361
C         -3.63823       -0.79271        5.87070
N         -4.12252       -2.04474        6.09154
C         -5.40264       -2.18136        6.47617
C         -6.23345       -1.09888        6.57875
N         -5.80040        0.15249        6.32293
C         -4.91791        2.78121        5.85645
C         -4.55601        4.06951        5.80461
C         -5.28752        5.32637        5.62133
N         -4.63791        6.31351        5.04799
C         -5.55389        7.29521        5.00452
C         -6.78665        6.86990        5.61821
C         -7.74086        8.01082        5.52243
O         -8.84642        8.12692        6.00181
C         -6.97357        9.02555        4.74995
C         -5.64932        8.52235        4.51872
N         -4.90533        9.42192        3.82662
C         -5.75009       10.39304        3.62849
C         -7.11265       10.21759        4.18114
C         -6.68191        5.61678        6.06325
C         -7.58315        4.75666        6.76466
C         -8.17592        5.07490        7.92686
C         -9.04210        4.14996        8.63893
C        -10.01038        4.47649        9.51433
C        -10.73438        3.55387       10.43011
C        -11.26510        2.35103       10.11350
C        -11.11923        1.78527        8.81436
N        -10.98772        1.31888        7.75963
C        -12.08616        1.61732       11.01421
N        -12.75713        1.01629       11.74579
C        -10.95516        4.34843       11.68813
C        -10.67914        5.71709       11.40451
C        -10.64825        6.66779       12.41568
C        -10.96938        6.26355       13.71449
C        -11.31128        4.93118       13.98766
C        -11.28818        3.96173       12.97954
C        -10.42063        5.82827        9.94144
C        -10.95762        6.75991        9.11493
C        -11.72123        7.85439        9.61152
N        -12.38687        8.71309       10.01987
C        -11.05120        6.51916        7.70865
N        -11.19797        6.24423        6.59055
H          0.94859       -6.63953        1.15440
H         -1.42154       -6.74232        0.55391
H         -2.93166       -4.83393        0.99479
H         -2.09259       -2.78165        2.02961
H          3.53675       -3.40875        4.60104
H          3.60157        1.08687       11.19863
H          0.94170        1.27471       10.83875
H         -0.08905       -3.35681        5.26716
H         -2.18106       -2.67443        4.91675
H         -0.29584        4.17592        5.68068
H          1.17370        2.22274        5.07210
H         -5.72682       -3.18808        6.71057
H         -7.26655       -1.19991        6.88856
H         -5.96849        2.51202        5.79562
H         -3.51450        4.35088        5.78874
H         -5.50508       11.31639        3.08394
H         -7.95233       10.87744        4.10418
H         -7.77631        3.79017        6.30367
H         -7.98215        6.04270        8.38597
H         -8.79995        3.10222        8.46279
H        -10.36882        7.70064       12.23007
H        -10.95393        6.98723       14.52813
H        -11.57836        4.64264       15.00349
H        -11.51352        2.93564       13.24838
