137

C         -1.74481      -17.63568       10.44120
C         -2.02305      -19.02468       10.41313
C         -2.98476      -19.59475       11.42549
C         -1.43249      -19.85706        9.42780
C         -1.75645      -21.32319        9.31763
C         -0.57117      -19.29289        8.48293
C         -0.31867      -17.93246        8.55118
C         -0.87895      -17.08152        9.50829
C         -0.41297      -15.69142        9.22382
C         -0.39598      -14.65559       10.09872
C         -0.92881      -14.75113       11.41136
N         -1.36781      -14.82601       12.48444
C          0.20344      -13.39519        9.78683
N          0.68104      -12.37523        9.53451
C          0.19621      -15.72605        7.87115
C          0.48901      -17.17519        7.59214
O          1.22712      -17.67913        6.77299
C          0.29750      -14.72182        6.98062
C          0.77670      -14.75544        5.58915
C          1.42679      -13.61459        5.07907
C          1.94571      -13.59500        3.77897
C          1.84751      -14.73543        3.00358
C          1.03999      -15.77976        3.44569
C          0.51397      -15.81798        4.72301
N          0.79101      -16.67461        2.39950
C         -0.17508      -17.73913        2.47550
C          1.42429      -16.25693        1.23313
O          1.23335      -16.68965        0.11388
C          2.33882      -15.13180        1.66919
C          3.49953      -14.79122        1.07068
C          4.52498      -13.88436        1.73908
O          4.52092      -13.42694        2.86575
N          5.55607      -13.74323        0.82607
C          6.78740      -13.05518        1.11255
C          5.34714      -14.54700       -0.29742
C          4.13316      -15.23051       -0.19591
C          3.83218      -16.14862       -1.18098
C          4.72305      -16.34031       -2.25509
C          5.94925      -15.64918       -2.37352
C          6.23889      -14.73136       -1.34919
C          6.90357      -15.90038       -3.49815
C          7.13034      -17.16581       -4.10221
C          8.10386      -17.38264       -5.15160
N          8.28737      -18.63396       -5.63105
C          7.52736      -19.64238       -5.17223
C          6.58516      -19.43292       -4.20986
N          6.40254      -18.21739       -3.66224
C          8.88823      -16.34493       -5.71398
C          8.64866      -15.04597       -5.16361
C          7.67345      -14.82785       -4.04107
N          7.63458      -13.53906       -3.64892
S          8.69276      -12.68662       -4.57321
N          9.22000      -13.89103       -5.55653
C          9.91143      -16.53937       -6.79120
C         11.05216      -15.71676       -6.87032
C         12.01689      -15.84183       -7.87553
C         11.93869      -16.87442       -8.78417
C         10.82126      -17.70609       -8.72593
C          9.80995      -17.53963       -7.77859
N         10.87970      -18.66255       -9.74716
C          9.92175      -19.72262       -9.92741
C         12.03224      -18.51552      -10.51458
O         12.34059      -19.18700      -11.48110
C         12.79151      -17.35351       -9.89945
C         13.97075      -16.88254      -10.35779
C         14.64944      -15.65218       -9.80203
O         14.68616      -15.25569       -8.65341
N         15.38783      -15.12743      -10.85557
C         16.24880      -13.98819      -10.68139
C         15.57743      -16.12249      -11.82603
C         14.80276      -17.25240      -11.52480
C         15.07206      -18.43585      -12.18710
C         16.13025      -18.47043      -13.11286
C         16.90635      -17.32643      -13.39697
C         16.54275      -16.10942      -12.82000
C         18.09748      -17.47072      -14.25446
C         19.25045      -16.77891      -14.25378
C         20.20161      -17.00254      -15.39339
O         20.26511      -17.95965      -16.13570
C         21.02077      -15.77997      -15.46447
C         20.67948      -14.89759      -14.43051
C         21.25103      -13.63418      -14.41898
C         22.22903      -13.29876      -15.38201
C         22.61549      -14.24319      -16.36881
C         21.98111      -15.49305      -16.41725
C         23.73249      -13.99128      -17.34663
C         22.85821      -11.93010      -15.31672
C         19.76886      -15.62571      -13.50345
C         19.74446      -15.43377      -12.16222
C         19.25823      -16.43044      -11.26389
N         18.89646      -17.23369      -10.51336
C         20.26504      -14.26427      -11.53683
N         20.63935      -13.28513      -11.03728
H         -2.24541      -17.02517       11.18627
H         -3.27620      -18.84758       12.17101
H         -2.52223      -20.42550       11.96741
H         -3.89339      -19.94485       10.92571
H         -1.69872      -21.81691       10.29163
H         -1.04498      -21.83571        8.66043
H         -2.75879      -21.45432        8.89802
H         -0.12423      -19.88873        7.69129
H         -0.02666      -13.72123        7.25510
H          1.55621      -12.72661        5.69663
H          2.42920      -12.69404        3.41524
H         -0.07167      -16.67358        5.03168
H          0.23727      -18.55304        3.07892
H         -0.41165      -18.11579        1.47718
H         -1.09740      -17.36979        2.93486
H          6.77326      -12.64117        2.12500
H          6.92236      -12.24029        0.39639
H          7.62105      -13.76040        1.04238
H          2.94569      -16.76564       -1.16172
H          4.43074      -17.07882       -2.99993
H          7.16536      -14.16810       -1.34712
H          7.70003      -20.61634       -5.61411
H          5.94384      -20.22752       -3.84849
H         11.23754      -14.92945       -6.14281
H         12.79377      -15.09544       -7.87411
H          8.94816      -18.19538       -7.81290
H         10.13423      -20.51461       -9.20235
H         10.00429      -20.14179      -10.93430
H          8.90267      -19.35285       -9.78584
H         15.88986      -13.36761       -9.85436
H         16.25891      -13.38936      -11.59522
H         17.25742      -14.32918      -10.43469
H         14.55723      -19.36036      -11.94966
H         16.37598      -19.42797      -13.57169
H         17.06692      -15.19238      -13.04983
H         17.98854      -18.26271      -14.99995
H         20.97317      -12.88990      -13.67825
H         22.23685      -16.23225      -17.17212
H         24.00122      -12.93519      -17.42185
H         23.44108      -14.32055      -18.34948
H         24.62230      -14.54877      -17.03485
H         22.41978      -11.32124      -14.51871
H         22.69738      -11.39385      -16.25747
H         23.93083      -12.01545      -15.11714
