104

C         -2.22092        2.26431        2.64861
C         -1.44342        2.83974        1.64433
F         -0.80796        3.99374        1.88884
C         -1.31894        2.22759        0.40532
F         -0.54995        2.77404       -0.54611
C         -1.99472        1.04530        0.13548
C         -2.80290        0.46323        1.12088
C         -2.90067        1.05792        2.41673
C         -3.66032        0.42957        3.43664
C         -4.34043       -0.74989        3.16031
C         -4.27869       -1.24766        1.85138
C         -3.51851       -0.69650        0.83635
C         -5.09356       -2.45432        1.73120
O         -5.58970       -2.87030        0.70693
C         -5.28432       -2.93253        3.13306
C         -5.14443       -1.71845        3.97375
C         -5.76269       -1.48034        5.15419
C         -6.61084       -2.44454        5.77608
N         -7.28711       -3.23869        6.28169
C         -5.67417       -0.22862        5.81795
N         -5.59552        0.80036        6.34936
C         -5.33713       -4.22634        3.49579
C         -5.22660       -5.33436        2.59561
C         -4.53269       -5.47614        1.38802
C         -4.69673       -6.75513        0.82763
C         -5.44537       -7.56349        1.64592
S         -5.99227       -6.84397        3.03733
C         -5.52163       -8.84260        1.06338
C         -4.82139       -8.84649       -0.12112
C         -4.28461       -7.50348       -0.35990
C         -3.60533       -7.04435       -1.43009
C         -3.29369       -7.88470       -2.53201
N         -3.02647       -8.56024       -3.43777
C         -3.16542       -5.69305       -1.51579
N         -2.79198       -4.59262       -1.59209
C         -4.82573      -10.13047       -0.71388
C         -5.53887      -11.05715        0.05994
S         -6.23248      -10.27878        1.46696
C         -5.77629      -12.51463       -0.14586
C         -5.90560      -13.34080        0.98065
C         -6.13622      -14.70140        0.85230
C         -6.24775      -15.29923       -0.40995
C         -6.10654      -14.49676       -1.56182
N         -6.20189      -15.05185       -2.79689
C         -6.03817      -14.25685       -3.87148
C         -5.79834      -12.91429       -3.74356
N         -5.71964      -12.32133       -2.53683
C         -5.86312      -13.09184       -1.42861
C         -6.47786      -16.76967       -0.48999
C         -6.05675      -17.69348       -1.45512
C         -6.45857      -19.00720       -1.13319
C         -7.13775      -19.04476        0.06275
S         -7.39679      -17.57005        0.76725
C         -7.45282      -20.38225        0.37309
C         -7.00002      -21.18726       -0.64517
C         -6.33821      -20.36667       -1.66018
C         -5.74022      -20.78190       -2.79328
C         -5.67029      -22.16418       -3.12861
N         -5.62266      -23.30354       -3.35426
C         -5.13393      -19.87020       -3.70049
N         -4.63463      -19.13856       -4.45300
C         -7.32207      -22.53715       -0.41331
C         -7.89447      -22.71737        0.84930
S         -8.17844      -21.18528        1.63252
C         -8.29553      -23.91356        1.51043
C         -7.65641      -25.08642        1.39095
C         -8.41346      -26.32792        1.76220
O         -9.36640      -26.42964        2.50432
C         -7.81461      -27.40176        0.94653
C         -8.28563      -28.69803        0.81969
C         -7.63756      -29.54823       -0.08583
C         -6.55305      -29.05343       -0.87307
C         -5.92502      -29.90631       -1.79172
C         -6.34501      -31.22583       -1.91879
C         -7.39183      -31.70960       -1.14706
C         -8.04368      -30.88164       -0.23801
F         -7.78504      -32.98452       -1.26963
F         -5.72284      -32.02911       -2.79216
C         -6.11153      -27.72624       -0.71978
C         -6.71537      -26.91042        0.22491
C         -6.44248      -25.52473        0.68886
C         -5.22196      -24.93359        0.70596
C         -4.94826      -23.75641        1.46343
N         -4.68581      -22.80825        2.07910
C         -4.08909      -25.49135        0.04729
N         -3.17283      -25.94383       -0.50204
H         -2.28815        2.77616        3.60507
H         -1.88194        0.59135       -0.84612
H         -3.67847        0.88199        4.42444
H         -3.48148       -1.17908       -0.13761
H         -5.40092       -4.49314        4.54812
H         -3.95311       -4.67982        0.94215
H         -4.33417      -10.40282       -1.64088
H         -5.82123      -12.94288        1.98999
H         -6.21593      -15.28402        1.76790
H         -6.10343      -14.73946       -4.83946
H         -5.65942      -12.27117       -4.60457
H         -5.47665      -17.40237       -2.32270
H         -7.12904      -23.35961       -1.08887
H         -9.23161      -23.87454        2.06991
H         -9.13943      -29.02634        1.40708
H         -5.09804      -29.56379       -2.40911
H         -8.86062      -31.29469        0.34750
H         -5.30418      -27.36394       -1.35062
