100

C         -6.01169       -3.91970       -5.51365
C         -5.65411       -3.87883       -4.15030
C         -5.35490       -5.07924       -3.50224
C         -5.37326       -6.31350       -4.17529
C         -5.71486       -6.32369       -5.53121
C         -6.03747       -5.14328       -6.19285
S         -4.99676       -4.74693       -1.85230
C         -5.20993       -3.07020       -2.14066
N         -5.55573       -2.73732       -3.36675
C         -4.99728       -2.10955       -1.07827
N         -5.17009       -2.40413        0.19662
C         -4.85852       -1.25093        0.84138
C         -4.46227       -0.23944       -0.09674
C         -4.11937        1.00506        0.64118
O         -3.73257        2.07066        0.21663
C         -4.37900        0.61083        2.04698
C         -4.81878       -0.76157        2.07612
N         -5.07098       -1.14259        3.35386
C         -4.80024       -0.06175        4.03586
C         -4.34009        1.11804        3.27238
C         -4.53204       -0.70234       -1.33867
C         -4.23088       -0.05423       -2.57079
C         -3.01084        0.42595       -2.85559
C         -2.71386        1.16226       -4.07031
C         -1.77366        0.66178       -4.90879
C         -1.47166        1.36215       -6.14008
C         -0.62208        1.04624       -7.14974
C          0.27656       -0.17201       -7.24246
C          0.00283       -0.98362       -8.53433
N          0.77355       -2.22395       -8.65793
C          1.76615        0.20140       -7.04795
N          2.03903        0.78236       -5.72825
C         -0.75712        2.14728       -8.11144
C         -0.17443        2.39113       -9.29736
C         -0.47987        3.64394      -10.11710
C         -1.56468        4.53067       -9.51370
C         -2.13568        4.29417       -8.32100
C         -1.73406        3.11467       -7.60494
C         -2.15606        2.63758       -6.42679
C         -3.12715        3.15601       -5.49745
C         -3.38794        2.44053       -4.38705
C          0.80039        4.41534      -10.34017
C          1.27997        5.35713       -9.51015
C          2.56775        6.02019       -9.79211
N          3.09555        6.17054      -10.98324
C          4.24093        6.85210      -10.73228
C          4.37428        7.10231       -9.31973
C          5.64963        7.82641       -9.08020
O          6.12865        8.22307       -8.04198
C          6.19555        7.96543      -10.44628
C          5.28636        7.35526      -11.38388
N          5.77793        7.46931      -12.64286
C          6.90314        8.10563      -12.45760
C          7.25302        8.46735      -11.06967
C          3.33505        6.61819       -8.64826
C          3.03618        6.58534       -7.24632
C          3.41923        7.55011       -6.39604
C          3.08388        7.52093       -5.01561
N          2.77933        6.46716       -4.28462
C          2.54735        6.84146       -2.96813
C          2.22894        5.97835       -1.89960
C          2.01616        6.50443       -0.61938
C          2.12150        7.87284       -0.39068
C          2.43568        8.74823       -1.43216
C          2.64513        8.20830       -2.71103
S          3.04728        9.02394       -4.16284
H         -6.25902       -2.99732       -6.02942
H         -5.12473       -7.23594       -3.65895
H         -5.72906       -7.26734       -6.07341
H         -6.30620       -5.16751       -7.24654
H         -4.89755        0.01568        5.12817
H         -4.06924        2.08938        3.63487
H         -5.04875        0.04973       -3.28260
H         -2.17584        0.29134       -2.17043
H         -1.25101       -0.26264       -4.68902
H          0.02333       -0.85197       -6.41696
H          0.19785       -0.38587       -9.42655
H         -1.05985       -1.25598       -8.56091
H          1.77178       -2.03887       -8.58453
H          0.63393       -2.60898       -9.59240
H          2.09696        0.89749       -7.82587
H          2.39412       -0.69127       -7.12694
H          1.45555        1.60816       -5.58894
H          3.00479        1.10312       -5.68698
H          0.55066        1.70882       -9.72331
H         -0.85665        3.31733      -11.09571
H         -1.86719        5.40387      -10.08623
H         -2.88740        4.95571       -7.90764
H         -3.62742        4.09546       -5.69524
H         -4.11015        2.81106       -3.66440
H          1.36997        4.14037      -11.22741
H          0.75289        5.63420       -8.60472
H          7.59294        8.38221      -13.27049
H          8.12123        8.97641      -10.69743
H          2.44899        5.74377       -6.88054
H          3.98986        8.40531       -6.74590
H          2.15204        4.91024       -2.07737
H          1.76545        5.83626        0.20117
H          1.95856        8.26927        0.60920
H          2.51872        9.81668       -1.25777
