132

C         -4.22757      -14.59316      -14.48678
C         -4.15509      -15.99230      -14.52526
C         -4.33273      -16.76499      -13.36524
C         -4.63370      -16.16115      -12.14550
C         -4.75437      -14.78181      -12.11906
C         -4.51337      -13.98138      -13.27679
C         -4.51139      -12.53493      -12.85085
C         -4.77712      -11.43596      -13.59123
C         -5.13228      -11.53026      -14.96600
N         -5.44613      -11.62322      -16.07931
C         -4.83401      -10.14211      -13.00393
N         -4.84914       -9.09023      -12.49945
C         -4.40496      -12.59106      -11.36932
C         -5.08057      -13.84884      -11.01449
C         -6.15962      -13.97098      -10.20785
C         -6.78020      -12.80642       -9.66864
N         -7.32082      -11.83877       -9.32042
C         -6.83785      -15.20938      -10.03253
N         -7.35815      -16.23465       -9.87660
C         -3.56087      -11.87630      -10.59305
C         -3.15775      -12.13902       -9.21257
C         -3.03233      -13.38614       -8.68911
C         -2.68132      -13.32942       -7.28446
C         -2.52118      -14.46268       -6.45029
N         -2.42050      -15.40012       -5.77403
C         -2.52780      -12.04983       -6.91592
C         -2.79203      -11.21253       -8.09147
C         -2.64904       -9.87021       -8.08240
C         -2.63105       -8.95661       -6.91094
C         -2.31268       -7.73437       -7.39464
C         -2.09873       -7.80227       -8.82105
C         -2.34046       -9.04903       -9.25195
C         -1.64853       -6.71377       -9.60393
N         -1.25438       -5.82071      -10.23016
C         -3.14280       -9.08071       -5.55940
C         -4.26329       -8.45607       -5.16396
C         -4.74983       -8.35635       -3.80042
C         -5.94016       -8.93580       -3.51526
C         -6.66278       -8.57397       -2.30763
C         -7.92698       -8.85290       -1.87157
C         -9.00205       -9.76005       -2.48377
C         -8.92359      -10.02178       -4.02391
N         -9.02864       -8.83170       -4.87326
C         -9.10628      -11.15364       -1.77973
N         -7.91187      -11.99774       -1.86352
C         -8.11398       -7.93052       -0.70996
C         -9.17802       -7.55665        0.02881
C         -9.08666       -6.45017        1.10302
C         -7.69378       -5.87323        1.31160
C         -6.63596       -6.26498        0.59290
C         -6.85325       -7.23327       -0.44245
C         -6.00351       -7.61414       -1.39943
C         -4.65564       -7.16234       -1.64455
C         -4.07026       -7.52239       -2.79772
C         -9.67271       -6.92762        2.40842
C         -8.99662       -7.51725        3.40969
C         -9.62296       -7.97065        4.62411
C        -10.64116       -8.86263        4.59874
C        -10.93758       -9.31406        5.93812
C        -11.97962      -10.20842        6.26656
N        -12.83977      -10.93949        6.54361
C        -10.08165       -8.74704        6.80281
C         -9.21973       -7.83426        6.04531
C         -8.32411       -6.98071        6.58756
C         -7.85453       -6.93039        7.98942
C         -7.04265       -5.85715        8.08431
C         -6.96282       -5.18121        6.81017
C         -7.68376       -5.85508        5.89911
C         -6.24805       -3.97602        6.62371
N         -5.66759       -2.97649        6.51090
C         -7.98163       -7.86176        9.08112
C         -6.93849       -8.56466        9.55020
C         -7.02818       -9.49575       10.64900
C         -7.44168       -9.23693       11.90493
C         -7.87013      -10.28984       12.85340
C         -7.20221      -11.42603       13.16435
C         -5.95220      -11.74714       12.55955
N         -4.94004      -12.00805       12.05659
C         -7.64913      -12.32271       14.15371
N         -8.02528      -13.07501       14.97716
C         -9.11567       -9.74208       13.48891
C         -9.19156       -8.34741       13.19842
C        -10.31441       -7.61008       13.54980
C        -11.34955       -8.25233       14.23114
C        -11.26650       -9.61602       14.53875
C        -10.15398      -10.37234       14.15831
C         -7.97506       -7.96102       12.42746
C         -7.36476       -6.75348       12.42518
C         -7.92316       -5.61675       13.07453
N         -8.38867       -4.69094       13.59599
C         -6.06362       -6.56958       11.86990
N         -5.00484       -6.40618       11.42543
H         -4.03265      -14.03350      -15.39598
H         -3.93473      -16.49411      -15.46649
H         -4.23221      -17.84802      -13.41905
H         -4.74777      -16.77053      -11.25384
H         -3.02991      -11.05360      -11.05746
H         -3.16409      -14.33109       -9.19686
H         -2.16564      -11.71522       -5.95673
H         -2.31134       -6.80797       -6.83605
H         -2.16269       -9.38245      -10.25788
H         -2.54249       -9.62449       -4.83914
H         -4.86657       -7.87783       -5.86797
H         -6.41036       -9.53298       -4.27632
H         -9.97529       -9.27250       -2.32601
H         -9.72451      -10.70995       -4.31970
H         -8.01226      -10.56598       -4.28132
H         -9.61433       -9.04075       -5.68230
H         -9.46624       -8.05886       -4.37774
H         -9.92477      -11.71955       -2.24676
H         -9.38339      -11.03443       -0.72743
H         -7.21660      -11.65467       -1.19866
H         -8.13747      -12.94578       -1.55916
H        -10.16307       -7.97490       -0.14784
H         -9.70260       -5.60613        0.76071
H         -7.56010       -5.10601        2.07090
H         -5.65058       -5.84300        0.75519
H         -4.15680       -6.51497       -0.93634
H         -3.07708       -7.15768       -3.03744
H        -10.73930       -6.74208        2.52016
H         -7.92858       -7.71312        3.32218
H        -11.11831       -9.26175        3.71429
H        -10.10628       -8.88588        7.86813
H         -6.46857       -5.55868        8.95035
H         -7.83435       -5.55738        4.87461
H         -8.96904       -7.95592        9.52503
H         -5.95972       -8.49191        9.07571
H         -6.78482      -10.51148       10.33814
H        -10.43312       -6.56349       13.28873
H        -12.23876       -7.69096       14.51155
H        -12.09186      -10.09820       15.05952
H        -10.15795      -11.43618       14.36992
