109

C          8.53657        7.13581       -1.55251
C          8.59267        8.31251       -0.89300
C          9.12406        8.52266        0.47675
O          9.32938        7.64505        1.30143
O          9.23441        9.85670        0.70830
C          9.24298       10.28135        2.07479
C          8.02725        9.42078       -1.54434
N          7.53782       10.31821       -2.12038
C          9.03805        5.81298       -1.18266
C         10.33919        5.44306       -1.55584
C         10.74630        4.12660       -1.36344
C          9.84026        3.17806       -0.84550
C          8.56043        3.54443       -0.45436
C          8.17063        4.87722       -0.59055
C         10.47037        1.88570       -0.78228
C         11.80646        2.00103       -1.20117
C         12.11951        3.46807       -1.59366
C         13.21767        4.02380       -0.64264
C         12.87891        4.02320        0.85598
C         12.54081        3.47614       -3.09571
C         12.93523        4.80149       -3.74427
C         12.65047        0.89208       -1.20060
C         12.14575       -0.35003       -0.77885
C         10.79323       -0.44999       -0.39315
C          9.95450        0.66763       -0.38322
C         13.02873       -1.52865       -0.80666
C         12.89461       -2.58978        0.00397
C         13.76656       -3.74529       -0.05325
C         13.36388       -5.01131       -0.24169
C         14.22969       -6.16255       -0.20296
C         13.59145       -7.33159       -0.37995
C         12.15861       -7.19684       -0.61299
S         11.71544       -5.48417       -0.56952
C         11.25548       -8.18435       -0.79307
C         11.48868       -9.61662       -0.70853
C         10.36038      -10.34758       -0.67012
C          9.15018       -9.54511       -0.68617
S          9.53418       -7.89490       -1.10177
C          7.93544       -9.97918       -0.29728
C          6.71416       -9.16352       -0.16955
C          6.23163       -8.67751        1.08349
N          6.66921       -8.76134        2.40926
C          8.05501       -9.00446        2.78983
C          8.40114      -10.46628        2.98742
C          5.72950       -8.21190        3.29580
C          4.92713       -7.40393        2.48098
C          5.11540       -7.82822        1.12925
C          4.42496       -7.51360       -0.06153
C          4.83225       -8.06691       -1.27264
C          5.96396       -8.87164       -1.32484
C          4.09668       -6.42500        3.06936
C          4.04354       -6.29936        4.45466
C          4.72294       -7.20754        5.25811
C          5.55197       -8.21116        4.71356
C          6.14319       -9.19596        5.64676
C          6.30285      -10.49951        5.37358
C          6.93496      -11.47356        6.24753
C          6.80510      -12.82300        6.25761
C          5.92196      -13.65288        5.38801
O          5.56629      -14.78990        5.66421
O          5.70235      -13.04035        4.20159
C          5.30156      -13.89018        3.12870
C          7.60439      -13.56874        7.17896
N          8.31231      -14.12200        7.91921
H          8.06536        7.12005       -2.53749
H          9.69781       11.27605        2.12603
H          9.79742        9.60607        2.72980
H          8.20429       10.36817        2.40596
H         10.99916        6.17574       -2.00321
H          7.87375        2.81283       -0.03221
H          7.17912        5.17117       -0.25351
H         13.47272        5.05243       -0.92138
H         14.13478        3.43137       -0.76495
H         12.05446        4.70502        1.08679
H         13.74837        4.35786        1.43290
H         12.61563        3.02684        1.22572
H         11.72648        3.04902       -3.69685
H         13.39711        2.80197       -3.23576
H         12.20878        5.59669       -3.58513
H         13.00249        4.66415       -4.83106
H         13.91481        5.14607       -3.40080
H         13.68812        0.99008       -1.50928
H         10.36925       -1.40935       -0.10163
H          8.92040        0.56426       -0.07335
H         13.81559       -1.50931       -1.55633
H         12.11016       -2.63084        0.75777
H         14.82039       -3.52859        0.10237
H         15.29649       -6.07557       -0.03184
H         14.10209       -8.28402       -0.35342
H         12.47571      -10.04976       -0.61704
H         10.34709      -11.42373       -0.55762
H          7.80272      -11.01799       -0.00893
H          8.24554       -8.43203        3.70523
H          8.69925       -8.55187        2.02923
H          7.52349      -11.08514        3.15837
H          9.09272      -10.57551        3.82819
H          8.88759      -10.89151        2.10978
H          3.55809       -6.85877       -0.02925
H          4.27314       -7.84768       -2.17867
H          6.27471       -9.26704       -2.29047
H          3.52258       -5.74794        2.44225
H          3.43719       -5.51648        4.90390
H          4.59052       -7.13226        6.33654
H          6.32160       -8.83770        6.65969
H          5.97280      -10.83916        4.40043
H          7.65385      -11.03893        6.94717
H          5.19133      -13.26174        2.24067
H          4.35031      -14.38867        3.33180
H          6.09511      -14.61726        2.93389
