119

C          0.86755        1.29107        1.95493
C          0.94785        0.55975        3.09552
C          2.01896       -0.34444        3.33511
N          2.89209       -1.08729        3.53469
C          0.01673        0.69939        4.16363
N         -0.74230        0.80881        5.03279
C          1.85720        1.34109        0.83807
C          1.63946        2.52360        0.12337
C          2.35587        2.89650       -1.00587
C          3.35345        2.01415       -1.47070
C          3.58143        0.82016       -0.76720
C          2.84159        0.46234        0.39327
S          4.84039       -0.10110       -1.51769
C          5.04935        1.04947       -2.73613
C          4.21147        2.12435       -2.61682
Br         6.30061        0.87441       -4.11954
C          0.50000        3.27077        0.67523
O          0.20198        4.40966        0.38800
C         -0.13890        2.33783        1.65972
C         -1.44511        2.37280        1.97775
C         -2.44599        3.32362        1.47885
C         -2.72199        4.50834        2.18003
C         -3.74446        5.32829        1.71703
C         -4.49567        4.95741        0.57852
C         -4.23236        3.78947       -0.11470
C         -3.19113        2.97812        0.33152
C         -5.51728        5.94126        0.33772
C         -5.43078        6.94189        1.32344
C         -4.27723        6.66057        2.29109
C         -4.78243        6.51009        3.74964
C         -5.81315        5.40303        3.97759
C         -3.18045        7.76395        2.16939
C         -3.59560        9.19754        2.51517
C         -6.33991        7.98130        1.35427
C         -7.29758        8.05728        0.34635
C         -7.38484        7.04921       -0.63368
C         -6.49535        5.97945       -0.63931
C         -8.28868        9.12504        0.32100
C         -8.09563       10.38112        0.75270
C         -9.08645       11.47997        0.71303
C         -8.76211       12.77460        1.18959
C         -9.68861       13.87236        1.09181
N         -9.29191       15.11850        1.44011
C         -8.02151       15.30170        1.88383
C         -7.15610       14.24850        2.05669
N         -7.52733       12.98544        1.72224
C         -5.85890       14.38612        2.66638
N         -4.85665       14.50489        3.24308
C         -7.63032       16.65766        2.12030
N         -7.26891       17.74340        2.31387
C        -10.99721       13.70185        0.59974
C        -11.36227       12.42763        0.10453
C        -10.38746       11.29738        0.14615
N        -10.90306       10.18789       -0.41097
S        -12.45172       10.50024       -0.86392
N        -12.54187       12.09360       -0.44827
C        -12.00560       14.77159        0.55297
C        -12.92527       14.98735        1.50467
C        -13.82309       16.11816        1.53679
C        -14.36590       16.32986        2.74707
C        -13.94772       15.35371        3.73851
S        -13.12454       14.01037        2.93018
C        -13.97988       15.47943        5.07795
C        -14.36774       16.64715        5.85267
C        -13.79096       16.67796        7.06863
C        -12.92174       15.53860        7.30141
S        -13.27220       14.27887        6.15251
C        -11.90303       15.50706        8.17501
C        -10.91370       14.47100        8.16906
S        -11.19017       13.09427        9.16494
C         -9.75489       12.33138        8.65705
C         -9.02040       13.08976        7.77395
C         -9.71463       14.33994        7.45965
N         -9.16471       15.22418        6.53152
C         -8.22914       14.58237        5.58917
C         -7.16832       13.77107        6.32453
N         -7.74769       12.76513        7.21666
C         -7.06669       11.60081        7.57797
O         -7.49523       10.69026        8.27416
O         -5.80484       11.48539        7.09021
C         -9.47386       16.57270        6.40855
C         -9.05300       17.48539        5.52697
H          2.12562        3.82150       -1.52715
H          3.04943       -0.48880        0.87276
H          4.19424        2.95966       -3.30709
H         -1.90029        1.59668        2.58620
H         -2.16660        4.76753        3.07513
H         -4.82865        3.50212       -0.97416
H         -2.98071        2.06127       -0.21374
H         -5.23758        7.44994        4.08587
H         -3.93163        6.32365        4.41705
H         -6.68078        5.50804        3.31941
H         -6.17879        5.44257        5.00892
H         -5.37773        4.41185        3.82107
H         -2.78277        7.77984        1.14535
H         -2.33503        7.50175        2.81833
H         -4.32940        9.59516        1.80941
H         -2.73155        9.86670        2.44928
H         -4.00146        9.27796        3.52729
H         -6.31124        8.71439        2.15198
H         -8.16004        7.09155       -1.39615
H         -6.58223        5.20216       -1.38954
H         -9.22238        8.79118       -0.10820
H         -7.12158       10.65029        1.16220
H        -11.92664       15.43795       -0.29911
H        -13.98334       16.75604        0.67923
H        -15.01376       17.16456        2.97343
H        -14.97914       17.44871        5.46196
H        -13.88419       17.49916        7.76647
H        -11.72107       16.35044        8.83311
H         -9.53111       11.35665        9.06550
H         -8.79347       13.93611        4.90256
H         -7.69682       15.30860        4.97127
H         -6.53219       14.42279        6.93616
H         -6.54039       13.28938        5.56936
H         -5.40860       12.28159        6.70865
H        -10.13924       16.93949        7.18025
H         -8.35843       17.26935        4.73214
H         -9.39404       18.51333        5.59023
