100

C          2.02608        6.81747        1.26799
C          0.88530        6.51320        2.01355
C          0.65898        5.20979        2.44691
C          1.56189        4.19859        2.12111
C          2.69441        4.47553        1.34437
C          3.55317        3.43482        0.95202
C          4.61338        3.71728        0.10762
C          4.89356        5.05283       -0.22147
C          4.08447        6.10690        0.16351
C          2.94277        5.81431        0.92283
C          6.15141        5.13708       -0.99100
O          6.68143        6.14469       -1.40840
C          6.66476        3.72794       -1.05957
C          5.55328        2.85912       -0.65536
C          5.21604        1.65861       -1.18882
C          5.90529        1.11375       -2.31230
N          6.40243        0.67450       -3.26432
C          4.05762        0.93205       -0.78519
N          3.11739        0.34268       -0.44776
C          7.98481        3.54757       -1.21253
C          8.67954        2.33765       -0.91444
C          8.40803        1.34922        0.03737
C          9.38537        0.33484        0.03122
C         10.39686        0.62114       -0.85368
S         10.19127        2.01639       -1.72700
C         11.41487       -0.34028       -0.69952
C         11.04734       -1.23306        0.28189
C          9.70592       -0.89415        0.75459
C          8.91872       -1.58192        1.61035
C          9.35194       -2.79930        2.22307
N          9.68659       -3.79070        2.70683
C          7.60116       -1.12745        1.91118
N          6.53291       -0.72536        2.12102
C         12.09248       -2.13544        0.57503
C         13.21917       -1.88220       -0.21614
S         12.92858       -0.57177       -1.32816
C         14.55298       -2.50906       -0.17299
C         15.34972       -2.63701       -1.31983
C         16.62470       -3.20736       -1.25000
F         17.33448       -3.27699       -2.38648
C         17.15950       -3.67403       -0.04304
C         16.35622       -3.55349        1.10092
C         15.08510       -2.98066        1.03237
F         14.39193       -2.87409        2.17652
C         18.51175       -4.26164        0.02598
C         19.24623       -4.93779       -0.95590
C         20.51652       -5.32196       -0.47322
C         20.70016       -4.92254        0.82853
S         19.43032       -4.10591        1.50113
C         22.00083       -5.26736        1.24121
C         22.64920       -5.86538        0.19156
C         21.74119       -5.97899       -0.94725
C         21.96728       -6.59261       -2.12353
C         23.20462       -7.23670       -2.42604
N         24.20884       -7.77009       -2.65560
C         20.95760       -6.67990       -3.12005
N         20.13021       -6.75514       -3.92722
C         23.99307       -6.13689        0.50847
C         24.31874       -5.71868        1.80237
S         22.89975       -5.10166        2.62432
C         25.54359       -5.72869        2.53810
C         26.76804       -5.50248        2.03267
C         28.08602       -5.55769        2.72215
C         28.34802       -5.22907        4.01944
C         29.66856       -5.19057        4.54871
N         30.74254       -5.15739        4.98759
C         27.32390       -4.84435        4.93775
N         26.49191       -4.53648        5.68638
C         29.10930       -5.80524        1.65948
C         28.48597       -5.63800        0.41611
C         29.11096       -5.81636       -0.80416
C         30.45107       -6.18468       -0.80160
C         31.11976       -6.38802       -2.01448
C         32.46195       -6.75273       -2.02549
C         33.14630       -6.91723       -0.82348
C         32.48835       -6.72596        0.39582
C         31.13397       -6.36130        0.43514
C         30.44803       -6.17711        1.66230
C         27.07619       -5.30003        0.57740
O         26.36936       -4.90482       -0.32556
H          2.17989        7.84380        0.94098
H          0.16924        7.29516        2.25371
H         -0.22860        4.97480        3.02916
H          1.35692        3.18439        2.45983
H          3.34884        2.42257        1.28934
H          4.32758        7.12057       -0.14201
H          8.60097        4.40698       -1.48533
H          7.56675        1.40393        0.71506
H         12.07792       -2.90005        1.34388
H         15.00567       -2.29397       -2.29201
H         16.69512       -3.89611        2.07490
H         18.86239       -5.11824       -1.95356
H         24.71700       -6.56007       -0.17507
H         25.42527       -5.93751        3.59737
H         28.54970       -5.68533       -1.72577
H         30.59757       -6.26505       -2.96206
H         32.97248       -6.90669       -2.97279
H         34.19632       -7.19678       -0.83630
H         33.05071       -6.86380        1.31768
H         30.99332       -6.34890        2.58649
