102

C         -4.59817        1.93803        6.65692
C         -4.16404        1.76093        7.96807
F         -4.41701        2.71275        8.87642
C         -3.49298        0.60489        8.34068
F         -3.08798        0.43607        9.60635
C         -3.25243       -0.39892        7.41041
C         -3.70365       -0.25619        6.09000
C         -4.38262        0.93604        5.69719
C         -4.85171        1.08161        4.37075
C         -4.68067        0.04995        3.45336
C         -4.04925       -1.12160        3.89215
C         -3.53157       -1.28972        5.16755
C         -4.12912       -2.17226        2.86916
O         -3.67625       -3.29439        2.97382
C         -4.93931       -1.58885        1.74437
C         -5.10382       -0.14462        2.03175
C         -5.43855        0.83232        1.15328
C         -5.49984        2.20409        1.51677
N         -5.56707        3.32961        1.81612
C         -5.71946        0.56769       -0.22046
N         -5.95704        0.34554       -1.33221
C         -5.52039       -2.35872        0.80768
C         -5.38576       -3.82237        0.72941
C         -4.35360       -4.48022        0.06126
C         -4.26032       -5.92291        0.01626
N         -3.25060       -6.46476       -0.70230
C         -2.32117       -5.65142       -1.28165
C         -2.42670       -4.28413       -1.22456
N         -3.45173       -3.69395       -0.56588
C         -1.50496       -3.39369       -1.86579
N         -0.76262       -2.67494       -2.39913
C         -1.22335       -6.30703       -1.92631
N         -0.31530       -6.80592       -2.45049
C         -5.18574       -6.78583        0.68443
C         -6.24366       -6.11438        1.38454
C         -6.35843       -4.61626        1.37839
N         -7.44352       -4.15825        2.02844
S         -8.24699       -5.48175        2.60784
N         -7.21545       -6.67808        2.12387
C         -5.10433       -8.28284        0.68875
C         -3.88361       -8.97592        0.78568
F         -2.73048       -8.30809        0.94439
C         -3.80633      -10.37661        0.75550
F         -2.59314      -10.95257        0.78074
C         -4.94969      -11.17434        0.71466
C         -6.17179      -10.51094        0.64228
C         -6.24237       -9.11029        0.59502
F         -7.45932       -8.57722        0.40598
F         -7.31864      -11.20690        0.58373
C         -4.80898      -12.64013        0.67180
C         -5.66640      -13.50973        1.23158
C         -5.55859      -14.98568        1.20032
C         -6.71030      -15.80092        1.25028
C         -6.63292      -17.23562        1.29675
N         -7.77800      -17.95376        1.39274
C         -8.97747      -17.31359        1.38577
C         -9.04970      -15.95069        1.30024
N         -7.92383      -15.19501        1.25213
C        -10.29587      -15.25004        1.24075
N        -11.32995      -14.72571        1.19371
C        -10.13334      -18.15932        1.41919
N        -11.05687      -18.86168        1.42085
C         -5.40274      -17.93125        1.23000
C         -4.21788      -17.14303        1.18400
C         -4.29425      -15.64279        1.17989
N         -3.07581      -15.07428        1.18621
S         -1.95467      -16.28522        1.13080
N         -2.95404      -17.60235        1.15587
C         -5.23272      -19.39891        1.33366
C         -6.00909      -20.39006        0.86739
C         -5.86850      -21.74027        1.51953
O         -4.90454      -22.19709        2.09567
C         -7.20899      -22.35315        1.42275
C         -7.64495      -23.50604        2.05513
C         -9.00686      -23.83258        1.96402
C         -9.90232      -22.95057        1.28711
C        -11.27231      -23.24030        1.25214
C        -11.74805      -24.41208        1.82556
C        -10.87612      -25.29419        2.44830
C         -9.51561      -25.00780        2.53520
F        -11.33867      -26.43697        2.97271
F        -13.05733      -24.68845        1.75922
C         -9.41614      -21.80107        0.64774
C         -8.05871      -21.52816        0.67377
C         -7.25000      -20.43309        0.08927
C         -7.53842      -19.75562       -1.04738
C         -6.63593      -18.81806       -1.61833
N         -5.93367      -18.00203       -2.05101
C         -8.76925      -19.90719       -1.74292
N         -9.79217      -19.99183       -2.28588
H         -5.12395        2.85669        6.40783
H         -2.73087       -1.29507        7.73651
H         -5.38076        1.99396        4.11159
H         -3.05262       -2.22669        5.43971
H         -6.20194       -1.96270        0.06308
H         -3.92388      -12.98906        0.14392
H         -6.55287      -13.13807        1.74522
H         -4.38663      -19.68292        1.96757
H         -6.94375      -24.11674        2.61802
H        -11.98098      -22.56883        0.77227
H         -8.86627      -25.71805        3.03936
H        -10.12222      -21.13673        0.15836
