112

C         -6.35417      -11.22518       -8.29924
C         -7.25680      -11.88246       -9.13073
C         -8.13004      -12.85492       -8.58693
C         -9.05319      -13.51766       -9.46877
N         -9.79001      -14.04836      -10.19019
C         -8.10463      -13.15450       -7.20780
C         -9.03764      -14.07112       -6.61760
N         -9.80043      -14.78532       -6.11182
C         -7.18246      -12.51522       -6.37419
C         -6.33542      -11.57450       -6.94115
C         -5.38086      -10.74220       -6.19886
O         -5.01229      -10.95816       -5.06517
C         -4.98497       -9.64710       -7.14681
C         -5.37277      -10.11361       -8.50515
C         -4.84343       -9.71694       -9.68976
C         -5.22145      -10.29800      -10.93683
N         -5.54389      -10.77756      -11.94120
C         -3.81893       -8.73056       -9.77001
N         -2.99407       -7.91793       -9.83500
C         -4.59974       -8.42392       -6.73837
C         -4.47249       -8.05578       -5.36282
S         -2.87090       -7.97799       -4.71904
C         -3.37621       -7.49367       -3.14079
C         -4.76522       -7.46174       -3.09607
C         -5.40727       -7.70368       -4.39717
C         -6.81634       -7.61070       -4.57435
S         -7.68033       -7.75390       -6.11064
C         -7.51712       -7.31466       -3.38148
C         -6.88722       -7.13149       -2.11729
C         -5.48871       -7.17954       -1.92206
C         -2.35285       -7.21727       -2.15402
C         -1.99537       -8.23433       -1.32665
C         -1.08088       -7.98269       -0.22396
C         -0.65820       -8.80308        0.77242
C         -0.86075      -10.29839        0.93118
C          0.46577      -11.11871        0.97066
N          1.40750      -10.83901        2.05625
C         -1.85168      -10.64584        2.06688
N         -2.07821      -12.08488        2.22843
C          0.00154       -7.90571        1.72118
C          0.39088       -8.10712        2.98883
C          1.00801       -7.02659        3.84757
C          1.19452       -5.70290        3.11157
C          0.78438       -5.48729        1.84483
C          0.11302       -6.56265        1.15332
C         -0.55182       -6.61138       -0.01460
C         -0.80635       -5.60647       -1.02094
C         -1.65898       -5.90510       -2.02777
C          2.32839       -7.51132        4.39726
C          2.46831       -8.14187        5.58063
C          3.75033       -8.51022        6.10226
S          4.99387       -9.02787        5.02366
C          6.28357       -8.64731        6.11572
C          5.72141       -8.43076        7.36314
C          4.26484       -8.61885        7.38941
C          3.54393       -8.70561        8.60304
S          1.86058       -9.19781        8.78558
C          4.36062       -8.52148        9.74389
C          5.75623       -8.23282        9.69469
C          6.50169       -8.18830        8.50210
C          7.65468       -8.82407        5.71217
C          8.11688       -8.66393        4.45865
C          9.24575       -9.55544        4.03025
O         10.18082       -9.96132        4.68539
C          8.88014       -9.96914        2.65367
C          9.39801      -11.05150        1.95602
C          8.72045      -11.47299        0.80123
C          7.54854      -10.80073        0.38038
C          7.07666       -9.66912        1.08082
C          7.75779       -9.24440        2.21288
C          7.45793       -8.20910        3.23153
C          6.83221       -7.02004        3.05864
C          6.77500       -6.03726        4.10107
N          6.74727       -5.24156        4.93662
C          6.21567       -6.66804        1.82863
N          5.69549       -6.42548        0.82031
C          6.76218      -11.29281       -0.71781
N          6.09029      -11.69194       -1.57637
C          9.20831      -12.63232        0.10311
N          9.61063      -13.57015       -0.44633
H         -7.33976      -11.65405      -10.19095
H         -7.14418      -12.70687       -5.30336
H         -4.45771       -7.60981       -7.44259
H         -8.82254       -8.25458       -5.61729
H         -8.60401       -7.21220       -3.41460
H         -7.52903       -6.93137       -1.25701
H         -5.05007       -7.02236       -0.94405
H         -2.44973       -9.21436       -1.40908
H         -1.34994      -10.64635        0.00932
H          0.99770      -10.97706        0.02214
H          0.22410      -12.18651        1.01871
H          1.81580       -9.91790        1.89739
H          2.17917      -11.50038        2.01048
H         -2.81909      -10.17649        1.84645
H         -1.52133      -10.24567        3.02764
H         -2.41245      -12.49571        1.35989
H         -2.79463      -12.24334        2.93407
H          0.24909       -9.06941        3.46857
H          0.31796       -6.83800        4.68094
H          1.67331       -4.89861        3.66561
H          0.93084       -4.52981        1.35936
H         -0.29168       -4.65292       -0.96944
H         -1.83389       -5.17471       -2.81402
H          3.18758       -7.30459        3.76548
H          1.57673       -8.29076        6.17715
H          1.70635       -9.78121        7.58808
H          3.90532       -8.61437       10.73169
H          6.27705       -8.06976       10.63918
H          7.56638       -7.98944        8.50207
H          8.30061       -9.30839        6.44639
H         10.26018      -11.59268        2.34119
H          6.14839       -9.19606        0.76482
