162

C          6.76269        6.37084        6.70347
C          5.94038        7.27104        7.36976
F          6.11050        7.46457        8.68368
C          4.92780        7.94662        6.70258
C          4.74968        7.75418        5.32987
C          5.55677        6.84190        4.63351
C          6.55489        6.11410        5.34456
C          7.27544        5.08948        4.71343
C          6.94601        4.76631        3.41299
C          6.08601        5.58107        2.67253
C          5.37054        6.61780        3.25599
C          6.06895        5.14988        1.25745
O          5.46369        5.67500        0.34321
C          6.99527        3.96475        1.18989
C          7.23608        3.55875        2.58832
C          7.18067        2.31092        3.09060
C          6.90449        1.18680        2.25159
N          6.60614        0.26798        1.58767
C          7.22635        2.03114        4.48003
N          7.26298        1.83365        5.62473
C          7.54205        3.59782        0.02021
C          8.61596        2.66958       -0.13020
C          9.69563        2.39123        0.67971
C         10.54945        1.31804        0.21414
C         11.61378        0.62821        0.84607
C         11.89538        0.82900        2.30116
C         13.10921        0.89633        2.97675
C         12.97758        1.00986        4.39144
C         11.66362        1.09960        4.78626
S         10.61323        0.89402        3.45593
C         11.11829        1.30796        6.16092
Cl        14.33535        1.03771        5.43380
C         12.39138       -0.29254        0.11185
C         12.20533       -0.48947       -1.26494
C         11.10578        0.16920       -1.89796
C         10.24835        1.00003       -1.11913
S          8.71762        1.71648       -1.53807
C         10.86908       -0.03057       -3.37001
C         11.06932       -1.14301       -4.18216
C         10.73026       -0.93414       -5.55849
C         10.23640        0.32813       -5.79041
S         10.34189        1.28068       -4.37637
C          9.69603        0.93621       -7.04619
Cl        10.93005       -2.16110       -6.73809
C         13.25561       -1.35863       -1.77333
C         14.08385       -1.90210       -0.80877
S         13.62533       -1.33675        0.71766
C         15.18050       -2.83283       -0.99024
C         15.66207       -3.30810       -2.18494
C         16.76762       -4.23935       -2.09068
C         17.52354       -4.90781       -3.09319
C         17.24622       -4.67775       -4.55522
C         18.12028       -4.60657       -5.63788
C         17.47969       -4.43857       -6.90128
C         16.11604       -4.32691       -6.78059
S         15.62950       -4.56932       -5.16432
C         15.09999       -4.10073       -7.85098
Cl        18.35675       -4.39589       -8.37120
C         18.54146       -5.81736       -2.71064
C         18.81692       -6.11558       -1.36465
C         18.07580       -5.42460       -0.36069
C         17.07837       -4.48616       -0.74228
S         16.06598       -3.51985        0.28360
C         18.32308       -5.69202        1.09604
C         18.35929       -4.81747        2.17886
C         18.58560       -5.45458        3.43611
C         18.80194       -6.80531        3.30218
S         18.51005       -7.30544        1.69533
C         19.17484       -7.80078        4.35181
Cl        18.59867       -4.58727        4.91267
C         19.84579       -7.14517       -1.28593
C         20.28873       -7.61162       -2.50191
S         19.58263       -6.72163       -3.75021
C         21.21875       -8.68208       -2.76807
C         22.25214       -9.12535       -1.97884
C         23.00377      -10.23853       -2.53581
C         24.11345      -10.96889       -2.02876
C         24.58101      -10.76409       -0.61279
C         25.85831      -10.77965       -0.06040
C         25.89301      -10.59623        1.35385
C         24.64374      -10.37083        1.87887
S         23.43966      -10.58308        0.68375
C         24.26762      -10.01015        3.27953
Cl        27.36085      -10.62890        2.23562
C         24.76845      -11.90640       -2.86662
C         24.26864      -12.26161       -4.13126
C         23.12246      -11.56971       -4.62078
C         22.51942      -10.56748       -3.81456
S         21.10824       -9.63424       -4.16620
C         22.57786      -11.84863       -5.99854
C         22.04323      -10.98417       -6.95330
C         21.61877      -11.62605       -8.15852
C         21.84547      -12.98113       -8.13199
S         22.46288      -13.46014       -6.61451
C         21.59265      -14.00770       -9.18820
Cl        20.91299      -10.75679       -9.45527
C         25.06832      -13.34007       -4.68650
C         26.14878      -13.73102       -3.93048
S         26.26213      -12.72052       -2.57673
C         27.13418      -14.71237       -4.25211
C         27.83903      -15.43259       -3.36870
C         29.12492      -16.04784       -3.83699
O         29.44426      -16.33930       -4.97025
C         29.97559      -16.12160       -2.63218
C         31.31437      -16.46782       -2.58919
C         31.98188      -16.37128       -1.36182
C         31.28778      -15.87408       -0.21460
C         31.97787      -15.75028        0.99730
C         33.30974      -16.13529        1.08875
C         33.98833      -16.63812       -0.01446
C         33.32793      -16.74724       -1.23918
F         33.94708      -16.02900        2.25999
C         29.92684      -15.52972       -0.30175
C         29.25549      -15.70155       -1.50208
C         27.83698      -15.53261       -1.90449
C         26.75988      -15.72545       -1.10419
C         25.43544      -15.89416       -1.62956
N         24.37330      -16.04382       -2.05401
C         26.86922      -15.87183        0.30474
N         26.97389      -15.96502        1.45554
H          7.52613        5.84661        7.27225
H          4.27709        8.61562        7.25731
H          3.94876        8.28742        4.82429
H          8.02107        4.52653        5.27003
H          4.66234        7.18848        2.66709
H          7.17621        4.07724       -0.89004
H          9.86651        2.91496        1.61154
H         14.07436        0.82929        2.48998
H         11.59611        0.62914        6.87469
H         10.03993        1.13321        6.21226
H         11.30773        2.33634        6.48944
H         11.44360       -2.09245       -3.82262
H          9.84645        0.29021       -7.91715
H         10.18632        1.89176       -7.26077
H          8.61840        1.11803       -6.95645
H         13.37483       -1.59627       -2.82136
H         15.21262       -2.99302       -3.11277
H         19.19506       -4.70223       -5.55678
H         15.32544       -3.18836       -8.41500
H         14.08709       -3.99616       -7.44842
H         15.09836       -4.94330       -8.54991
H         18.21031       -3.74845        2.09726
H         20.00246       -7.42463        4.96511
H         19.50182       -8.75371        3.92220
H         18.32399       -7.99706        5.01152
H         20.20602       -7.58137       -0.36496
H         22.48000       -8.65278       -1.03232
H         26.76562      -10.92355       -0.62957
H         24.92080      -10.50344        4.00706
H         23.23805      -10.29516        3.51726
H         24.36171       -8.92755        3.42607
H         21.93759       -9.91584       -6.81344
H         20.72580      -13.74325       -9.80244
H         21.38986      -14.99100       -8.75083
H         22.46040      -14.10434       -9.85075
H         24.86543      -13.84120       -5.62137
H         27.38166      -14.80100       -5.31153
H         31.82306      -16.79256       -3.49359
H         31.48791      -15.36706        1.89032
H         35.02437      -16.94248        0.08736
H         33.87445      -17.13786       -2.09611
H         29.42492      -15.13082        0.57661
