112

C          1.07688        1.55949       -1.88908
C         -0.29709        1.76532       -1.86156
F         -0.87554        2.46241       -2.84783
C         -1.07574        1.27560       -0.82210
C         -0.47452        0.55558        0.21184
C          0.91441        0.34772        0.22236
C          1.70461        0.86868       -0.84522
C          3.10477        0.73020       -0.83031
C          3.72021        0.13594        0.26060
C          2.91942       -0.42245        1.27175
C          1.53558       -0.34094        1.27334
C          3.76094       -1.08896        2.28681
O          3.37357       -1.67772        3.27323
C          5.16632       -0.95358        1.78305
C          5.14161        0.02234        0.68792
C          6.12390        0.89776        0.36283
C          7.27878        1.08753        1.17764
N          8.18653        1.34421        1.85274
C          6.01484        1.81518       -0.72078
N          5.92838        2.53551       -1.62234
C          6.09579       -1.84107        2.17143
C          7.37430       -2.09622        1.52185
C          7.40688       -2.51787        0.23878
C          8.64344       -2.81475       -0.43767
C          9.93712       -2.74911        0.25608
C         10.10092       -2.36014        1.51897
S          8.78357       -1.89102        2.55047
C         10.91145       -3.17392       -0.66695
C         10.31165       -3.47455       -1.86466
C         11.21982       -3.89314       -2.84972
C         12.50448       -3.91714       -2.32332
S         12.56226       -3.41844       -0.66151
C          8.89283       -3.25082       -1.70947
C          7.91685       -3.49453       -2.74401
C          7.73206       -4.69697       -3.32053
C          6.74516       -4.90193       -4.33104
C          5.85306       -3.98359       -4.88048
C          5.05068       -4.54632       -5.88885
C          5.26917       -5.89213       -5.99293
S          6.49079       -6.48349       -5.03017
C          4.31830       -6.40773       -6.89117
C          3.49951       -5.39605       -7.35316
C          3.99448       -4.12911       -6.82985
C          3.75964       -2.84851       -7.20078
C          4.82425       -1.88028       -6.71135
N          5.70744       -1.07706       -6.30532
C          2.76303       -2.40972       -8.26127
N          1.93626       -2.04572       -9.14104
C          2.46773       -5.90937       -8.16828
C          2.53476       -7.31298       -8.26539
S          3.98673       -7.91300       -7.46864
C          1.66785       -8.26074       -8.92265
C          1.55535       -9.50577       -8.40878
C          0.80818      -10.54649       -9.05176
C          0.03092      -10.29618      -10.26731
C         -0.03159       -9.12350      -10.89640
S          0.83618       -7.70947      -10.37155
C         -0.58431      -11.51641      -10.59980
C         -0.22851      -12.48110       -9.68545
C         -0.78672      -13.73656       -9.97282
C         -1.58038      -13.65218      -11.11045
S         -1.60033      -12.06282      -11.80523
C          0.65089      -11.86337       -8.71662
C          1.24187      -12.54924       -7.58145
C          2.56915      -12.65280       -7.39616
C          3.19914      -13.29570       -6.25642
C          4.51974      -13.42308       -6.04336
C          5.02253      -13.82588       -4.68526
O          4.40911      -14.37690       -3.79626
C          6.42207      -13.35258       -4.62737
C          7.29007      -13.46487       -3.55384
C          8.57477      -12.91967       -3.68350
C          8.92562      -12.20638       -4.86888
C         10.20458      -11.64316       -4.97321
C         11.12829      -11.81348       -3.94804
C         10.80678      -12.52895       -2.80294
C          9.52908      -13.07306       -2.66524
F         12.35402      -11.28881       -4.07467
C          8.01068      -12.10493       -5.93468
C          6.78105      -12.74056       -5.83826
C          5.70113      -13.02805       -6.82127
C          5.92685      -13.27805       -8.13464
C          5.01747      -14.04984       -8.91656
N          4.30264      -14.71628       -9.54398
C          7.13987      -12.94021       -8.78819
N          8.13461      -12.63802       -9.31883
H          1.64594        1.97388       -2.71740
H         -2.14467        1.46532       -0.81880
H         -1.09781        0.18198        1.02226
H          3.67769        1.13032       -1.66128
H          0.96520       -0.77525        2.09053
H          5.87185       -2.51571        3.00017
H          6.48605       -2.69650       -0.30841
H         11.09244       -2.33331        1.95975
H         10.98217       -4.16536       -3.86988
H         13.42203       -4.19931       -2.82092
H          7.33492       -2.62068       -3.02869
H          8.33114       -5.54588       -2.99877
H          5.82421       -2.95917       -4.54169
H          1.68119       -5.32481       -8.63388
H          2.04554       -9.78995       -7.48358
H         -0.63643       -9.01148      -11.79039
H         -0.63702      -14.65015       -9.41307
H         -2.15070      -14.43871      -11.58487
H          0.54216      -12.99013       -6.87440
H          3.21790      -12.19883       -8.13932
H          2.52088      -13.63501       -5.46962
H          6.97570      -13.98504       -2.65314
H         10.50881      -11.08713       -5.85619
H         11.55316      -12.66083       -2.02567
H          9.29177      -13.63329       -1.76267
H          8.30041      -11.55834       -6.82813
