159

C         -2.08929        3.71180      -10.14918
C         -1.43064        2.92715      -11.02585
C         -1.97961        2.57883      -12.29601
N         -2.44111        2.28910      -13.32071
C         -0.16690        2.33992      -10.71864
N          0.86748        1.86368      -10.46629
C         -3.45459        4.30029      -10.29969
C         -3.93379        4.60121       -9.01505
C         -5.12324        5.26096       -8.76546
C         -5.88587        5.66479       -9.85980
C         -5.45426        5.35279      -11.18248
C         -4.23155        4.66730      -11.39142
C         -6.25664        5.76707      -12.25773
C         -7.43299        6.49214      -12.04009
C         -7.82783        6.81756      -10.74576
C         -7.06082        6.40115       -9.66046
C         -2.94445        4.24090       -7.99564
O         -3.15944        4.09377       -6.81179
C         -1.67640        4.02032       -8.76271
C         -0.46409        4.36039       -8.29148
C         -0.28155        4.95142       -7.00778
C          0.00382        4.34285       -5.79019
C          0.11770        5.31155       -4.78468
C         -0.02967        6.61197       -5.20944
S         -0.35995        6.69122       -6.85381
C          0.15515        7.61940       -4.20713
C          0.48238        7.16939       -2.94314
Si         0.53382        5.31033       -2.96284
C         -0.73454        4.47820       -1.84203
C         -1.26206        3.21605       -2.17328
C         -2.21628        2.59709       -1.35973
C         -2.66553        3.22492       -0.20172
C         -2.16138        4.47459        0.14525
C         -1.20495        5.09716       -0.66520
C          2.16002        4.43162       -2.59081
C          2.53982        4.08036       -1.28223
C          3.73827        3.39847       -1.03688
C          4.58386        3.05728       -2.08890
C          4.23515        3.39922       -3.39034
C          3.03940        4.08086       -3.63910
C          0.62669        8.19115       -1.99454
C          0.39414        9.43600       -2.57872
S          0.03329        9.29151       -4.27195
C          0.41408       10.73120       -1.93513
C         -0.29689       11.87740       -2.29366
C         -0.03635       12.91131       -1.38575
C          0.82655       12.56543       -0.37093
S          1.39115       10.99590       -0.52192
C          1.04957       13.56209        0.62665
C          0.36693       14.74699        0.46414
Si        -0.62713       14.65341       -1.10570
C         -0.09553       15.94728       -2.37440
C          0.90583       15.66824       -3.32553
C          1.30361       16.63545       -4.25560
C          0.71596       17.89759       -4.25051
C         -0.26750       18.19790       -3.31357
C         -0.66764       17.23551       -2.38217
C         -2.48791       14.86316       -0.97204
C         -3.11228       15.07197        0.27361
C         -4.50155       15.20606        0.37021
C         -5.29309       15.13893       -0.77252
C         -4.69769       14.94164       -2.01466
C         -3.30987       14.80217       -2.11531
C          0.60255       15.68214        1.47750
C          1.50292       15.17157        2.41306
S          1.99631       13.55491        2.00567
C          2.04488       15.83253        3.58093
C          2.95745       15.32589        4.50751
C          3.30449       16.31549        5.43321
C          2.72612       17.54213        5.19259
S          1.62651       17.48542        3.93298
C          3.27535       18.64229        5.91906
C          4.34295       18.33643        6.72933
Si         4.55709       16.48636        6.80181
C          3.85993       15.91416        8.50219
C          2.50361       15.55168        8.63199
C          1.97986       15.15249        9.86578
C          2.80079       15.09032       10.98772
C          4.13801       15.46515       10.88681
C          4.65924       15.89800        9.66228
C          6.24372       15.72827        6.59805
C          6.61564       14.51869        7.21906
C          7.91007       14.00005        7.09018
C          8.85052       14.65135        6.29940
C          8.49671       15.82074        5.63484
C          7.21287       16.35845        5.78905
C          5.04338       19.45264        7.18077
C          4.36398       20.63091        6.87287
S          2.96270       20.28837        5.87743
C          4.67563       22.00258        7.13627
C          5.37299       22.46504        8.18845
C          5.93484       23.82881        8.45430
C          5.71026       24.97766        7.76661
C          6.35505       26.21241        8.08050
N          6.87803       27.21810        8.31400
C          4.82594       25.07337        6.65039
N          4.11697       25.16972        5.73739
C          6.85149       23.68469        9.63937
C          6.82503       22.35371       10.05994
C          5.82230       21.59688        9.32952
O          5.41074       20.52072        9.70849
C          7.60824       21.82539       11.07439
C          8.44456       22.69060       11.76957
C          8.44713       24.07265       11.44109
C          7.65799       24.55414       10.36517
C          9.24035       24.93668       12.21102
C         10.02673       24.44744       13.25809
C         10.04704       23.08524       13.54380
C          9.25866       22.20888       12.80281
H         -5.41030        5.49386       -7.74309
H         -3.90278        4.48563      -12.41149
H         -5.97162        5.53541      -13.28220
H         -8.03961        6.81001      -12.88458
H         -8.73328        7.39578      -10.57826
H         -7.38278        6.66816       -8.65532
H          0.41737        4.33001       -8.92305
H          0.11978        3.27349       -5.66553
H         -0.94402        2.69652       -3.07585
H         -2.61295        1.62377       -1.63713
H         -3.41063        2.74256        0.42545
H         -2.51792        4.96899        1.04604
H         -0.84462        6.07782       -0.35904
H          1.90446        4.31639       -0.42996
H          4.00844        3.12708       -0.01923
H          5.51151        2.52493       -1.89516
H          4.89111        3.13341       -4.21602
H          2.80930        4.32628       -4.67550
H          0.85425        8.05267       -0.94365
H         -0.97747       11.92672       -3.13507
H          1.40022       14.69745       -3.35598
H          2.07726       16.40347       -4.98379
H          1.02667       18.64805       -4.97291
H         -0.72584       19.18369       -3.30389
H         -1.43996       17.51101       -1.66456
H         -2.53141       15.12656        1.19382
H         -4.96603       15.35783        1.34170
H         -6.37289       15.23776       -0.69480
H         -5.31394       14.89263       -2.90905
H         -2.88129       14.65053       -3.10581
H          0.16882       16.67374        1.53064
H          3.37618       14.32707        4.46683
H          1.82514       15.59287        7.78109
H          0.92644       14.89679        9.95040
H          2.39463       14.76643       11.94250
H          4.77502       15.43213       11.76726
H          5.69790       16.22454        9.63313
H          5.90706       13.95697        7.82774
H          8.18145       13.08329        7.60863
H          9.85296       14.24404        6.19470
H          9.22146       16.31840        4.99481
H          6.98368       17.28239        5.25745
H          5.97771       19.40817        7.72466
H          4.33884       22.67262        6.35564
H          7.54240       20.76786       11.31656
H          7.70549       25.61553       10.14965
H          9.24696       26.00611       12.00967
H         10.62621       25.13291       13.85176
H         10.66807       22.70448       14.35064
H          9.27853       21.14777       13.04418
