144

C         -8.23133      -13.58763       -3.39183
C         -8.25231      -12.38162       -2.82084
C         -9.25568      -11.37250       -3.02728
C         -8.97742      -10.21215       -2.41558
C         -7.71882      -10.21966       -1.68686
S         -7.00925      -11.83977       -1.73346
C         -7.11140       -9.15310       -1.13298
C         -7.57297       -7.77613       -1.15538
C         -6.61399       -6.88451       -0.85710
C         -5.33060       -7.49990       -0.59183
S         -5.52995       -9.22109       -0.36941
C         -4.15920       -6.84132       -0.58417
C         -2.81355       -7.43679       -0.47709
C         -2.44235       -8.55730       -1.23612
C         -1.16586       -9.11054       -1.13211
C         -0.21819       -8.52713       -0.29085
C         -0.57732       -7.40083        0.46498
C         -1.85495       -6.84096        0.34791
C          1.13106       -9.14441       -0.17228
C          1.33021      -10.04552        1.01274
C          1.77521       -9.49438        2.22387
C          1.85557      -10.27781        3.37713
C          1.49559      -11.62340        3.33248
C          1.05621      -12.18492        2.13218
C          0.96745      -11.39919        0.97969
C          2.12527       -8.92417       -1.09595
C          3.33807       -9.80169       -0.98029
C          3.37528      -11.03555       -1.65472
C          4.51410      -11.84077       -1.59876
C          5.62022      -11.42776       -0.85928
C          5.58804      -10.21068       -0.17675
C          4.45400       -9.39662       -0.24104
C          2.06540       -7.90743       -2.23502
C          1.37768       -6.69076       -2.16232
C          1.36143       -5.75496       -3.21611
C          2.10760       -5.94014       -4.38452
C          2.85172       -7.12959       -4.44181
C          2.82251       -8.08941       -3.40396
C          2.13227       -4.92501       -5.47729
C          1.93945       -3.55009       -5.22823
C          1.97389       -2.59141       -6.25727
C          2.21832       -2.97566       -7.57682
C          2.39995       -4.33510       -7.84841
C          2.35058       -5.28850       -6.81805
C          2.20062       -1.98526       -8.69464
C          0.93150       -1.80313       -9.45808
C          0.64766       -2.61919      -10.56139
C         -0.55442       -2.47634      -11.25753
C         -1.48147       -1.51492      -10.85870
C         -1.20779       -0.69536       -9.76428
C         -0.00752       -0.84038       -9.06333
C          3.31777       -1.27839       -9.03901
C          3.29006       -0.32452      -10.19045
C          2.93993        1.01914       -9.99700
C          2.97258        1.91576      -11.06770
C          3.36140        1.48307      -12.33343
C          3.71281        0.14872      -12.53146
C          3.67656       -0.75229      -11.46529
C          4.60529       -1.44212       -8.30737
C          5.52475       -2.43183       -8.68471
C          6.79297       -2.49546       -8.09167
C          7.15501       -1.57117       -7.11093
C          6.23432       -0.58660       -6.72373
C          4.96932       -0.52195       -7.31713
C          8.50053       -1.57005       -6.51730
C          9.52396       -0.82624       -6.96809
C         10.74856       -0.58475       -6.23860
C         11.35870        0.54968       -6.61871
C         10.64579        1.24361       -7.67976
S          9.48397        0.14129       -8.41657
C         10.67326        2.56214       -7.94368
C         11.38746        3.57543       -7.19006
C         10.92584        4.81805       -7.39987
C          9.85654        4.87574       -8.37086
S          9.62889        3.32558       -9.13526
C          9.14309        5.97009       -8.67106
C          8.09418        6.00622       -9.67526
C          8.02210        6.89478      -10.67539
C          7.06025        6.82407      -11.74692
C          7.27463        7.72992      -12.71478
C          8.39817        8.61371      -12.45652
S          9.13946        8.21217      -10.91063
C          8.81543        9.61980      -13.24802
C          8.27249        9.96356      -14.55044
C          8.76855       11.09726      -15.06407
C          9.73342       11.73296      -14.20511
S         10.09217       10.76001      -12.80910
C         10.28401       12.93104      -14.41140
H         -9.00543      -13.90539       -4.08074
H         -7.42504      -14.28862       -3.19607
H        -10.13445      -11.54109       -3.63382
H         -9.61522       -9.34313       -2.48365
H         -8.57891       -7.49346       -1.42918
H         -6.75815       -5.81328       -0.86719
H         -4.15582       -5.76141       -0.71741
H         -3.14685       -9.02817       -1.91749
H         -0.92506      -10.00393       -1.70252
H          0.15254       -6.92980        1.11866
H         -2.09077       -5.94210        0.91192
H          2.03724       -8.44141        2.27899
H          2.18207       -9.83352        4.31336
H          1.54881      -12.23103        4.23229
H          0.76311      -13.23128        2.10306
H          0.59393      -11.84487        0.06200
H          2.51868      -11.36441       -2.23853
H          4.53917      -12.78694       -2.13388
H          6.50781      -12.05362       -0.81368
H          6.44950       -9.89380        0.40465
H          4.44245       -8.44854        0.28939
H          0.84091       -6.40009       -1.27155
H          0.74611       -4.86790       -3.08398
H          3.49923       -7.33144       -5.29254
H          3.43961       -8.97533       -3.53497
H          1.76421       -3.19207       -4.21626
H          1.80142       -1.54579       -6.01524
H          2.56526       -4.66950       -8.86863
H          2.47109       -6.33405       -7.09280
H          1.36202       -3.37218      -10.88258
H         -0.76747       -3.11719      -12.10888
H         -2.41758       -1.40577      -11.40020
H         -1.93090        0.05455       -9.45455
H          0.19116       -0.19957       -8.20871
H          2.64907        1.37327       -9.01730
H          2.70444        2.96022      -10.90843
H          3.39749        2.18329      -13.16262
H          4.02258       -0.19017      -13.51765
H          3.96050       -1.78809      -11.63191
H          5.27254       -3.13701       -9.47231
H          7.50277       -3.24735       -8.42570
H          6.50916        0.16211       -5.98402
H          4.28717        0.27304       -7.02908
H          8.57839       -2.09953       -5.57105
H         11.08054       -1.20693       -5.42023
H         12.24945        0.94211       -6.14933
H         12.16316        3.34561       -6.47424
H         11.29243        5.69651       -6.88743
H          9.36422        6.91103       -8.17282
H          7.37754        5.18648       -9.64261
H          6.26775        6.08892      -11.77251
H          6.65034        7.80071      -13.59266
H          7.54016        9.35795      -15.06428
H          8.47686       11.50830      -16.02010
H         10.03095       13.53014      -15.27867
H         10.98926       13.35575      -13.70345
