110

C         -6.67645       -0.25638       -0.24832
O         -7.34460       -1.22055        0.05463
C         -7.11370        0.88903       -1.06750
C         -6.20182        1.95086       -0.94087
C         -6.40732        3.09877       -1.70602
C         -7.51489        3.15066       -2.56756
C         -8.40025        2.06677       -2.66973
C         -8.21355        0.91500       -1.91100
Br        -9.84653        2.16000       -3.88433
C         -5.13256        1.54216        0.00707
C         -4.31891        2.36032        0.71643
C         -4.33301        3.78133        0.56956
N         -4.35050        4.93110        0.44748
C         -3.44956        1.86044        1.72693
N         -2.74951        1.43965        2.55404
C         -5.27527        0.07679        0.17020
C         -4.32094       -0.84437        0.37783
C         -4.47691       -2.30102        0.29702
C         -4.68328       -3.12344        1.40680
C         -4.72198       -4.54381        1.32329
C         -4.56596       -5.32861        0.13849
C         -4.35691       -4.50646       -1.03208
C         -4.30640       -2.97312       -0.94182
N         -4.07121       -2.37630       -2.12639
S         -3.96031       -3.57942       -3.25244
N         -4.17176       -4.91007       -2.30280
C         -4.60735       -6.83613        0.14051
C         -4.81621       -7.58192        1.33380
C         -4.85486       -8.98452        1.32190
C         -4.68533       -9.69519        0.12609
C         -4.47713       -9.01558       -1.05447
C         -4.43857       -7.61057       -1.03568
C         -4.75466      -11.11394        0.38659
C         -4.95489      -11.33388        1.76345
C         -5.04681       -9.97943        2.49564
C         -3.87089       -9.77476        3.49561
C         -3.74741      -10.78349        4.63375
C         -6.42670       -9.79851        3.18142
C         -7.64017       -9.81573        2.24928
C         -5.05944      -12.63392        2.27206
C         -4.91295      -13.73490        1.40765
C         -4.74774      -13.48028        0.02510
C         -4.66828      -12.17974       -0.48848
C         -4.89787      -15.12285        1.93257
C         -5.55875      -15.68601        3.01053
C         -5.29013      -17.10038        3.20633
C         -4.35310      -17.55397        2.28206
S         -3.88999      -16.29927        1.19727
C         -3.87935      -18.87752        2.29812
O         -2.87648      -19.20466        1.38518
C         -2.97271      -20.48697        0.76950
C         -4.34705      -19.77942        3.27934
C         -5.37510      -19.37242        4.13644
C         -5.81326      -18.02683        4.14622
O         -6.82367      -17.54950        4.97792
C         -6.70471      -17.89358        6.35745
S         -5.95175      -20.74097        5.04370
C         -4.68678      -21.75733        4.54342
C         -3.88025      -21.08000        3.65626
C         -4.49707      -23.05949        5.09505
C         -3.96439      -24.06388        4.37926
C         -3.08155      -25.02477        5.11591
O         -3.16918      -25.39262        6.26656
C         -1.97794      -25.30742        4.17023
C         -2.25448      -24.73830        2.90997
C         -3.62552      -24.18244        2.95809
C         -4.48274      -24.01972        1.91845
C         -4.08623      -24.22180        0.56860
N         -3.73217      -24.35964       -0.53065
C         -5.86250      -23.71567        2.12826
N         -6.98897      -23.49902        2.29073
C         -1.26398      -24.71784        1.94088
C         -0.02551      -25.30312        2.23819
C          0.21087      -25.89705        3.49029
C         -0.76708      -25.90112        4.48130
Br         1.90369      -26.65881        3.84846
H         -5.73332        3.94745       -1.68833
H         -7.67293        4.04390       -3.17124
H         -8.87114        0.05693       -1.99223
H         -3.28197       -0.55165        0.51163
H         -4.80675       -2.66585        2.38864
H         -4.88002       -5.04540        2.27714
H         -4.94866       -7.09288        2.29209
H         -4.33790       -9.54468       -1.99182
H         -4.26482       -7.14729       -2.00094
H         -3.95918       -8.77802        3.94862
H         -2.91456       -9.77270        2.95423
H         -4.69397      -10.93962        5.15699
H         -3.01682      -10.42810        5.36823
H         -3.37826      -11.74747        4.27197
H         -6.44483       -8.84986        3.73353
H         -6.57487      -10.59135        3.92433
H         -7.69260       -8.90337        1.64693
H         -8.56077       -9.86957        2.84025
H         -7.63392      -10.67653        1.57469
H         -5.22294      -12.79095        3.33302
H         -4.67447      -14.30370       -0.68171
H         -4.53401      -12.02415       -1.55380
H         -6.23830      -15.12836        3.64406
H         -4.00512      -20.82144        0.62013
H         -2.40587      -21.21927        1.34989
H         -2.48283      -20.44299       -0.20792
H         -7.14973      -18.87209        6.55130
H         -7.29849      -17.17896        6.93584
H         -5.67146      -17.84929        6.71883
H         -2.96205      -21.50698        3.28320
H         -4.58286      -23.15283        6.17808
H         -1.39546      -24.23805        0.97560
H          0.76389      -25.27855        1.48800
H         -0.58593      -26.31010        5.47022
