112

C         -3.04458       13.39007        1.70353
C         -3.52445       12.92899        2.87420
C         -4.89400       12.48797        2.68551
C         -5.71984       11.97109        3.71150
N         -6.39901       11.53427        4.54484
C         -5.25002       12.66652        1.40050
C         -4.09106       13.20677        0.69500
C         -3.96382       13.47242       -0.61842
C         -4.90380       13.19640       -1.72269
C         -4.33500       13.70357       -2.83812
C         -3.04884       14.28656       -2.52140
C         -2.80393       14.14084       -1.20879
C         -2.19207       14.91138       -3.46337
N         -1.49197       15.41808       -4.22913
C         -6.15381       12.47992       -1.77684
C         -6.29857       11.19925       -1.39423
C         -7.56567       10.51131       -1.40086
C         -8.61959       10.97364       -0.68786
C         -9.75891       10.10166       -0.85346
C        -11.01936       10.32434       -0.25198
N        -12.05042       10.51861        0.24307
C         -9.42658        9.07887       -1.65703
C         -8.01208        9.23674       -2.02464
C         -7.28212        8.34554       -2.73191
C         -7.71207        7.02707       -3.25003
C         -6.59833        6.40311       -3.69161
C         -5.45487        7.27391       -3.53519
C         -5.85174        8.44520       -3.01745
C         -4.13071        6.92386       -3.88839
N         -3.04264        6.62897       -4.15625
C         -9.01920        6.44602       -3.40721
C         -9.36498        5.25264       -2.90116
C        -10.68562        4.70132       -3.04781
C        -11.43836        4.43830       -1.95333
C        -12.76706        4.08103       -2.37190
C        -13.94306        3.78237       -1.45635
N        -14.91865        3.53461       -0.69683
C        -12.86224        4.10766       -3.71015
C        -11.53281        4.40201       -4.24053
C        -11.16048        4.30533       -5.53814
C        -11.97297        3.93343       -6.73188
C        -11.09955        3.85200       -7.76183
C         -9.77506        4.22521       -7.33685
C         -9.79364        4.50510       -6.02872
C         -8.64873        4.27813       -8.18902
N         -7.72866        4.32515       -8.89232
C        -13.36197        3.56413       -6.90781
C        -14.05663        3.77158       -8.04102
C        -15.43932        3.40773       -8.21133
C        -16.40972        3.95360       -7.44235
C        -17.70208        3.45042       -7.84561
C        -18.92776        3.82802       -7.24955
N        -19.93182        4.13240       -6.75718
C        -17.55174        2.58888       -8.86382
C        -16.11755        2.47472       -9.15274
C        -15.55951        1.62456      -10.04447
C        -16.22697        0.59568      -10.87642
C        -15.24802       -0.11846      -11.47198
C        -13.96010        0.44501      -11.14104
C        -14.12903        1.49802      -10.32765
C        -12.73244       -0.04368      -11.63848
N        -11.72312       -0.45097      -12.04302
C        -17.61152        0.26239      -11.07764
C        -18.19777        0.25171      -12.28743
C        -19.57628       -0.11679      -12.51110
C        -20.17699       -1.06826      -11.75554
C        -21.50491       -1.33931      -12.24071
C        -22.41811       -2.22077      -11.61855
N        -23.16616       -2.93120      -11.09085
C        -21.72671       -0.61503      -13.34561
C        -20.54518        0.21849      -13.59850
C        -20.42107        1.11055      -14.60934
C        -21.36747        1.38058      -15.72441
C        -20.75601        2.26674      -16.54189
C        -19.46949        2.63742      -15.99747
C        -19.26813        1.98417      -14.84160
C        -18.57510        3.56049      -16.59141
N        -17.82682        4.30649      -17.07231
C        -22.68465        0.88685      -16.04406
C        -23.76487        1.06984      -15.27449
H         -2.05090       13.77436        1.53815
H         -2.99042       12.88848        3.81221
H         -6.22600       12.47536        0.99073
H         -4.73337       13.65136       -3.84237
H         -1.92797       14.48866       -0.68263
H         -6.99876       13.03415       -2.18457
H         -5.44846       10.64283       -1.00678
H         -8.63644       11.85696       -0.06476
H        -10.09348        8.28689       -1.95080
H         -6.54739        5.42812       -4.15689
H         -5.20611        9.28401       -2.82578
H         -9.73381        7.03144       -3.98406
H         -8.66767        4.68397       -2.28803
H        -11.14528        4.56090       -0.92047
H        -13.77160        3.93355       -4.25306
H        -11.32034        3.53835       -8.77203
H         -8.93033        4.80416       -5.46389
H        -13.85279        3.06329       -6.08097
H        -13.60034        4.26156       -8.89815
H        -16.26772        4.67893       -6.65280
H        -18.36011        2.08515       -9.36384
H        -15.38438       -0.97537      -12.11813
H        -13.33779        2.13079       -9.96818
H        -18.16329       -0.01292      -10.18260
H        -17.60871        0.50750      -13.16292
H        -19.74127       -1.60837      -10.92721
H        -22.64586       -0.64329      -13.89785
H        -21.16074        2.68124      -17.45477
H        -18.40832        2.11660      -14.21513
H        -22.78853        0.36555      -16.99432
H        -23.71010        1.59595      -14.32548
H        -24.72850        0.66225      -15.56500
