100

C         -5.35185       -2.38773        1.34026
C         -6.22410       -3.34682        1.72937
C         -5.84465       -4.71026        1.88338
N         -5.52859       -5.82007        2.00471
C         -7.57507       -3.04868        2.07490
N         -8.67695       -2.79610        2.33704
C         -3.89641       -2.56005        1.06887
C         -3.27227       -1.31501        1.19611
C         -1.91952       -1.10000        0.96443
C         -1.15519       -2.19372        0.49525
C         -1.78416       -3.43889        0.33370
C         -3.15313       -3.65009        0.63396
S         -0.68551       -4.61374       -0.29911
C          0.56750       -3.48751       -0.38960
C          0.22070       -2.24904        0.08031
Br         2.25918       -3.89268       -1.08527
C         -4.27279       -0.25917        1.43290
O         -4.04757        0.91278        1.65486
C         -5.60536       -0.93798        1.27130
C         -6.71404       -0.29006        0.87937
C         -6.79151        1.15796        0.64063
C         -7.20876        2.08404        1.59864
C         -7.30102        3.49396        1.31163
N         -7.75873        4.32676        2.27823
C         -8.09572        3.80619        3.49191
C         -7.97233        2.46433        3.75983
N         -7.53988        1.59733        2.81332
C         -8.28639        1.88614        5.03209
N         -8.53615        1.43136        6.07060
C         -8.61526        4.73559        4.45005
N         -9.05366        5.46806        5.23667
C         -6.93310        4.03996        0.05258
C         -6.41618        3.12273       -0.91300
C         -6.39754        1.64712       -0.62849
N         -5.98439        0.90395       -1.67246
S         -5.58977        1.96192       -2.88040
N         -5.85709        3.39036       -2.10430
C         -6.99709        5.50765       -0.19196
C         -7.24454        6.23749       -1.29425
C         -7.15358        7.68565       -1.32784
C         -7.02616        8.17595       -2.57234
C         -6.97978        7.12922       -3.58399
S         -7.63603        5.65294       -2.88953
C         -6.39570        7.21386       -4.79566
C         -5.80728        8.40939       -5.37005
C         -5.10442        8.18860       -6.48945
C         -5.05385        6.79760       -6.87989
S         -6.07942        5.82539       -5.85219
C         -4.27315        6.34262       -7.87363
C         -4.01639        4.93021       -8.19817
C         -3.04632        4.16889       -7.52755
C         -2.81764        2.78074       -7.82953
N         -1.91993        2.09213       -7.08526
C         -1.18295        2.75123       -6.14990
C         -1.33058        4.09730       -5.94483
N         -2.28212        4.80008       -6.60383
C         -0.43899        4.85579       -5.11839
N          0.33041        5.44141       -4.47659
C         -0.20206        1.96087       -5.46813
N          0.59615        1.30757       -4.93726
C         -3.44943        2.12548       -8.91605
C         -4.40938        2.88690       -9.64891
C         -4.70098        4.31981       -9.27861
N         -5.61889        4.89033      -10.07609
S         -6.06397        3.75120      -11.19252
N         -5.13044        2.47068      -10.70440
C         -3.21195        0.71673       -9.33721
C         -2.06986        0.00526       -9.35608
C         -0.68222        0.32101       -9.00065
C          0.03340        1.41043       -9.36793
C          1.38685        1.61208       -8.97778
N          2.46773        1.81383       -8.61116
C         -0.52874        2.44767      -10.16851
N         -1.00003        3.31780      -10.77488
C         -0.11971       -0.91104       -8.39189
C         -0.90941       -1.99207       -8.79469
C         -2.13656       -1.49041       -9.47605
O         -3.02621       -2.17528       -9.94206
C         -0.58897       -3.31559       -8.50155
C          0.56136       -3.55571       -7.70870
C          1.28165       -2.45766       -7.21392
C          0.95269       -1.12099       -7.53984
S          2.58059       -2.96102       -6.19254
C          2.26126       -4.58734       -6.48994
C          1.16899       -4.79294       -7.29182
Br         3.30795       -5.97389       -5.78460
H         -1.48719       -0.10825        1.06573
H         -3.58770       -4.62706        0.45026
H          0.89484       -1.40082        0.09853
H         -7.63026       -0.81361        0.62161
H         -6.78893        6.07434        0.71815
H         -7.13024        8.29512       -0.43433
H         -6.88334        9.22510       -2.78646
H         -5.90382        9.38851       -4.92339
H         -4.57513        8.96395       -7.02650
H         -3.67481        7.04095       -8.45354
H         -4.13231        0.19447       -9.61687
H         -1.21066       -4.12886       -8.86201
H          1.53865       -0.31543       -7.10967
H          0.81218       -5.77329       -7.58142
