85

C         -3.34838      -14.68540       -5.70905
C         -4.52038      -15.29597       -5.26756
F         -4.70248      -16.60412       -5.49191
C         -5.49472      -14.56052       -4.60840
F         -6.62526      -15.15095       -4.19712
C         -5.31122      -13.20415       -4.36862
C         -4.13838      -12.56925       -4.79968
C         -3.13863      -13.31379       -5.49297
C         -1.97340      -12.66846       -5.96833
C         -1.81127      -11.29859       -5.78217
C         -2.78701      -10.61718       -5.04272
C         -3.94279      -11.20929       -4.55791
C         -2.43646       -9.20216       -4.88162
O         -3.16291       -8.37500       -4.37425
C         -1.09080       -9.03314       -5.52877
C         -0.81396      -10.29181       -6.26654
C          0.01296      -10.45570       -7.32918
C          0.20079      -11.70889       -7.99362
N          0.36343      -12.72850       -8.51510
C          0.69681       -9.36058       -7.93430
N          1.21747       -8.45727       -8.44047
C         -0.33724       -7.93335       -5.35980
N         -0.52420       -6.79653       -4.59838
C         -0.91946       -6.70535       -3.29616
S         -0.35786       -7.81569       -2.09826
C         -1.09481       -6.95021       -0.84540
N         -0.94857       -7.37411        0.52129
O         -1.56960       -6.71871        1.36945
O         -0.21500       -8.34195        0.76271
C         -1.80935       -5.86373       -1.29319
C         -1.72309       -5.72773       -2.71760
C         -2.42953       -4.69037       -3.42235
C         -2.93004       -4.80200       -4.66275
C         -3.71072       -3.78405       -5.33574
C         -3.39050       -2.49507       -5.55297
C         -2.06847       -1.88410       -5.15452
C         -4.29507       -1.50352       -6.26743
N         -5.59922       -2.07240       -6.57367
C         -6.55375       -1.44926       -7.34604
C         -6.39402       -0.48390       -8.25735
C         -7.50717        0.10981       -8.95875
C         -7.59920        0.26497      -10.28602
C         -8.71884        0.89856      -10.93344
C         -8.65412        0.85651      -12.26896
C         -7.48172        0.16663      -12.78520
S         -6.43485       -0.31477      -11.45425
C         -7.23797       -0.08664      -14.08500
C         -8.10932        0.29125      -15.17838
C         -7.67554       -0.08981      -16.38351
C         -6.41775       -0.79962      -16.35687
S         -5.82666       -0.94210      -14.70822
C         -5.71956       -1.28851      -17.39316
C         -6.15425       -1.21593      -18.74580
N         -7.40315       -1.09178      -19.18401
C         -7.32536       -1.10647      -20.55626
C         -6.01058       -1.20800      -20.92886
O         -5.25845       -1.29427      -19.80011
C         -8.47735       -1.02140      -21.42039
O         -8.43830       -1.18486      -22.63383
H         -2.61486      -15.29492       -6.23120
H         -6.09458      -12.65575       -3.85213
H         -1.23246      -13.26605       -6.48898
H         -4.67254      -10.60821       -4.02174
H          0.61562       -7.82382       -5.87638
H         -0.50711       -5.93845       -5.14765
H         -2.37710       -5.20830       -0.64101
H         -2.62286       -3.77347       -2.86682
H         -2.86527       -5.73976       -5.20385
H         -4.64084       -4.19197       -5.73818
H         -1.29653       -2.63118       -4.94778
H         -2.19385       -1.25819       -4.26553
H         -1.67802       -1.25821       -5.96336
H         -3.79525       -1.17617       -7.18569
H         -4.44032       -0.62915       -5.62331
H         -6.01256       -2.56448       -5.78555
H         -7.54699       -1.85786       -7.16024
H         -5.40634       -0.10477       -8.50195
H         -8.32134        0.45372       -8.32331
H         -9.52772        1.36175      -10.38566
H         -9.41644        1.28987      -12.89910
H         -9.03374        0.83333      -15.04708
H         -8.22079        0.12840      -17.28990
H         -4.75820       -1.76478      -17.22741
H         -5.48469       -1.23855      -21.87256
H         -9.42895       -0.81514      -20.90250
