144

C         -2.46115        0.76231        3.02566
C         -3.39887       -0.11059        2.59192
C         -3.90471       -1.16484        3.40701
N         -4.30829       -2.03377        4.06350
C         -3.87985       -0.09452        1.24224
N         -4.26377       -0.06995        0.15354
C         -1.78493        0.73935        4.35403
C         -0.55708        1.40159        4.21978
C          0.32583        1.59645        5.26688
C         -0.03975        1.13182        6.53083
C         -1.28424        0.46266        6.71418
C         -2.15344        0.27134        5.61163
C         -1.62290        0.02090        8.00243
C         -0.76544        0.24168        9.08495
C          0.44396        0.90526        8.89791
C          0.80533        1.34571        7.62674
C         -0.39199        1.93505        2.85899
O          0.63790        2.36454        2.38815
C         -1.73686        1.76837        2.20880
C         -2.20313        2.56592        1.23073
C         -1.46400        3.63089        0.63651
C         -0.60404        3.61131       -0.46015
C         -0.15604        4.91236       -0.74723
C         -0.67386        5.89554        0.06630
S         -1.67505        5.25107        1.25203
C         -0.25160        7.23941       -0.21504
C          0.66577        7.39720       -1.23537
Si         1.06183        5.70268       -1.93096
C          2.84088        5.13325       -1.56882
C          3.11741        4.41627       -0.38321
C          4.41973        4.03160       -0.05286
C          5.47547        4.35385       -0.89695
C          5.22731        5.05159       -2.07726
C          3.92313        5.43863       -2.41415
C          0.78867        5.41288       -3.76283
C          0.90744        6.45819       -4.70176
C          0.71899        6.22966       -6.07097
C          0.39861        4.95674       -6.53191
C          0.24998        3.91385       -5.62282
C          0.44077        4.13809       -4.25388
C          1.06089        8.73156       -1.44767
C          0.39863        9.59284       -0.56714
S         -0.69886        8.70972        0.46678
C          0.51579       11.01566       -0.40842
C         -0.29111       11.81460       -1.13585
C         -0.23515       13.25234       -1.02724
C          0.70117       13.93724       -0.12063
C          1.56657       13.31158        0.67572
S          1.71696       11.57712        0.74751
C          0.46843       15.32294       -0.26875
C         -0.53948       15.52187       -1.17889
C         -0.84253       16.87424       -1.40196
C         -0.01625       17.67152       -0.62247
S          1.08959       16.74545        0.34991
C         -0.96677       14.22422       -1.64711
C         -2.03353       14.06853       -2.59980
C         -1.89575       13.46496       -3.78917
C         -2.96945       13.43705       -4.72134
C         -4.34553       13.45076       -4.49931
C         -5.02903       13.38643       -5.71683
C         -4.22346       13.34096       -6.83392
S         -2.59817       13.36607       -6.42613
C         -4.90385       13.19191       -8.08538
C         -6.27258       13.09965       -7.99946
Si        -6.80781       13.22765       -6.23116
C         -7.65830       11.70444       -5.53006
C         -7.54337       11.38148       -4.16395
C         -8.10764       10.21104       -3.64863
C         -8.79709        9.33918       -4.48574
C         -8.92413        9.63661       -5.83930
C         -8.36220       10.80776       -6.35858
C         -7.90720       14.67865       -5.79797
C         -8.79512       15.22732       -6.74436
C         -9.58171       16.34233       -6.43604
C         -9.49862       16.93189       -5.17851
C         -8.62769       16.40848       -4.22749
C         -7.83889       15.29426       -4.53261
C         -6.90919       12.86351       -9.21366
C         -5.99254       12.64918      -10.23468
S         -4.37403       13.05003       -9.67447
C         -6.16554       12.18602      -11.57815
C         -7.11672       11.31639      -11.97969
C         -7.20255       10.60097      -13.28320
C         -6.94642       11.11500      -14.50739
C         -7.17945       10.38507      -15.71242
N         -7.37305        9.78580      -16.67879
C         -6.49139       12.45482      -14.69672
N         -6.11575       13.54076      -14.83828
C         -7.81867        9.27051      -12.98958
C         -8.33264        9.31457      -11.69000
C         -8.13082       10.63058      -11.11094
O         -8.81316       11.04039      -10.19196
C         -8.92557        8.24821      -11.03428
C         -9.02061        7.04366      -11.72229
C         -8.54679        6.95925      -13.06152
C         -7.93720        8.07595      -13.68444
C         -8.68533        5.74177      -13.73921
C         -9.25355        4.63009      -13.10640
C         -9.68279        4.71502      -11.78539
C         -9.57109        5.91931      -11.09405
H          1.25601        2.13139        5.09700
H         -3.11213       -0.21196        5.78291
H         -2.56240       -0.49768        8.18206
H         -1.04399       -0.10180       10.07880
H          1.10627        1.08422        9.74112
H          1.75168        1.86738        7.50076
H         -3.23456        2.49596        0.90095
H         -0.32937        2.70465       -0.98694
H          2.32566        4.15254        0.31955
H          4.60259        3.48830        0.87123
H          6.48924        4.06464       -0.63278
H          6.05575        5.30181       -2.73568
H          3.77579        5.98626       -3.34325
H          1.14826        7.47241       -4.38673
H          0.82262        7.04870       -6.77950
H          0.26122        4.77809       -7.59545
H         -0.01320        2.92053       -5.97913
H          0.31193        3.29363       -3.57852
H          1.79362        9.07559       -2.16861
H         -1.01670       11.38974       -1.82180
H          2.22289       13.88158        1.32724
H         -1.59240       17.26129       -2.07938
H          0.00458       18.75222       -0.57078
H         -2.96108       14.56679       -2.32826
H         -0.94214       13.03279       -4.08370
H         -4.79664       13.46612       -3.51440
H         -6.99586       12.02655       -3.47983
H         -7.99791        9.97599       -2.59300
H         -9.22935        8.42658       -4.08439
H         -9.45346        8.95230       -6.49765
H         -8.47197       10.99109       -7.42718
H         -8.88257       14.80523       -7.74477
H        -10.25613       16.75375       -7.18342
H        -10.10882       17.79939       -4.94148
H         -8.55704       16.87241       -3.24683
H         -7.16224       14.92430       -3.76468
H         -7.97669       12.76345       -9.32020
H         -5.38300       12.48729      -12.27210
H         -9.27563        8.36574      -10.01401
H         -7.55189        7.96015      -14.69202
H         -8.35588        5.64171      -14.77106
H         -9.35447        3.69378      -13.64861
H        -10.10866        3.84552      -11.29249
H         -9.91061        5.96744      -10.06149
