97

C         -1.29932        0.73300       -0.61351
C         -0.05548        1.11622       -0.97641
C          0.54170        0.67829       -2.18886
N          1.01796        0.32615       -3.18912
C          0.76012        1.90065       -0.10657
N          1.43479        2.50887        0.61512
C         -2.12080       -0.31671       -1.23891
C         -2.81572       -0.97152       -0.20741
C         -3.64893       -2.04778       -0.43839
C         -3.89864       -2.40082       -1.77212
C         -3.31241       -1.64873       -2.83597
C         -2.38892       -0.62538       -2.55970
C         -3.69577       -1.92191       -4.15589
C         -4.60770       -2.94010       -4.43551
C         -5.12549       -3.71759       -3.40312
C         -4.77332       -3.45083       -2.07945
C         -2.69239       -0.19376        1.05334
O         -3.16296       -0.45993        2.13692
C         -1.98535        1.06178        0.63231
C         -2.39316        2.24864        1.11477
C         -2.20713        3.47908        0.40402
C         -2.15086        3.71571       -0.97571
C         -1.95522        5.07386       -1.27184
C         -2.00586        5.84414       -0.13537
S         -2.14116        4.98636        1.28220
C         -1.98339        7.20094       -0.52029
C         -1.89694        7.27847       -1.89415
C         -1.81470        5.93077       -2.44696
C         -1.59849        5.55693       -3.72369
C         -1.44470        6.50749       -4.76880
N         -1.31838        7.28007       -5.62480
C         -1.46856        4.18539       -4.07679
N         -1.36507        3.05359       -4.31696
C         -1.94685        8.61156       -2.34774
C         -2.08070        9.49645       -1.27712
S         -2.11337        8.66233        0.25061
C         -2.21886       10.93493       -1.32568
C         -1.78611       11.84414       -0.35687
C         -2.16583       13.15846       -0.72510
C         -2.80724       13.14882       -1.91014
S         -3.02773       11.68951       -2.68177
C         -3.17398       14.40354       -2.22854
C         -2.78605       15.25302       -1.25456
N         -2.14340       14.46965       -0.33160
C         -1.54107       14.93069        0.89035
C         -3.19768       16.57703       -1.56491
C         -3.90034       16.59438       -2.77634
S         -3.99468       15.01385       -3.53821
C         -4.51033       17.74954       -3.41249
C         -4.13478       19.07627       -3.34905
C         -5.00262       19.94300       -4.11420
N         -4.82096       21.29036       -4.20282
C         -3.72127       21.71917       -3.52638
C         -2.86988       20.86985       -2.77957
N         -3.04694       19.52269       -2.65672
C         -1.65963       21.42021       -2.07735
C         -3.45153       23.19444       -3.62827
C         -6.02488       19.26619       -4.75223
S         -5.91558       17.58805       -4.39443
C         -7.06203       19.77005       -5.63524
C         -8.35070       19.30088       -5.83568
C         -9.07237       20.05782       -6.82443
N        -10.34868       19.80446       -7.21354
C        -10.86998       18.72505       -6.55988
C        -10.16978       17.97096       -5.58345
N         -8.89450       18.23743       -5.17869
C        -10.80852       16.77915       -4.92565
C        -12.28294       18.37479       -6.93555
C         -8.33345       21.08104       -7.35291
S         -6.76148       21.11760       -6.68428
H         -4.14830       -2.54095        0.39023
H         -1.94942       -0.05129       -3.37265
H         -3.30419       -1.32860       -4.98057
H         -4.91261       -3.12689       -5.46227
H         -5.82036       -4.52318       -3.62669
H         -5.20528       -4.06048       -1.28847
H         -3.02747        2.27324        2.00160
H         -2.27254        2.93764       -1.71643
H         -1.91171        8.94027       -3.38005
H         -1.25741       11.57595        0.54828
H         -1.76303       15.98931        1.04117
H         -0.46027       14.78185        0.81835
H         -1.94706       14.34766        1.72189
H         -3.01968       17.44925       -0.94843
H         -1.93771       22.24163       -1.41040
H         -0.92660       21.77431       -2.80879
H         -1.18111       20.64686       -1.46725
H         -4.19248       23.68049       -4.27243
H         -2.46435       23.37450       -4.06455
H         -3.50909       23.66294       -2.64143
H        -11.72682       17.07123       -4.40788
H        -10.13372       16.33635       -4.18522
H        -11.03562       16.00979       -5.67021
H        -12.64065       19.02112       -7.74414
H        -12.94790       18.51188       -6.07743
H        -12.34496       17.34042       -7.28655
H         -8.63568       21.79705       -8.10266
