92

C        -14.16244        0.53465       -4.51835
C        -14.90269        0.14896       -5.58489
C        -15.44367       -1.16299       -5.70974
N        -15.89019       -2.23138       -5.80199
C        -15.23532        1.03950       -6.64619
N        -15.47919        1.75521       -7.52379
C        -13.77207       -0.31445       -3.35637
C        -13.36777        0.51782       -2.31069
C        -12.80750        0.06013       -1.12314
C        -12.61543       -1.33377       -0.98782
C        -13.04760       -2.17751       -2.02284
C        -13.63475       -1.68811       -3.21510
S        -12.73341       -3.83467       -1.65296
C        -11.97257       -3.43068       -0.20328
C        -11.97614       -2.08624        0.05801
Br       -11.18997       -4.70374        0.92544
C        -13.46698        1.92683       -2.71101
O        -13.37007        2.87367       -1.95913
C        -13.68913        1.89935       -4.19942
C        -13.27720        2.87881       -5.02355
C        -12.67262        4.08047       -4.54537
C        -11.32490        4.37428       -4.31251
C        -10.27054        3.40369       -4.62869
O        -10.34968        2.58999       -5.54023
O         -9.18956        3.42450       -3.81076
C        -11.17284        5.70937       -3.76209
C        -12.36888        6.39567       -3.75494
S        -13.69161        5.41490       -4.19103
C         -9.94040        6.35082       -3.38613
C         -9.35856        6.35009       -2.16324
C         -9.93561        5.68343       -0.93992
C         -8.01521        7.01568       -1.93892
N         -8.22012        8.38226       -1.51144
C         -8.34860        9.47753       -2.32768
C         -8.59584       10.74106       -1.95946
C         -8.79382       11.80088       -2.93274
C         -9.88750       12.57482       -2.99569
C        -10.16758       13.53772       -4.03590
C        -11.44523       13.95136       -4.05023
C        -12.26315       13.33764       -3.01789
S        -11.23287       12.44691       -1.89709
C        -13.60646       13.33307       -2.93557
C        -14.54606       13.93879       -3.86016
C        -15.82142       13.58006       -3.64436
C        -15.98530       12.68311       -2.51897
S        -14.47829       12.44777       -1.68732
C        -17.12703       12.05991       -2.19721
C        -17.30907       11.13815       -1.08632
C        -18.18475       10.12778       -0.97141
C        -19.20721        9.56622       -1.85840
C        -20.13904       10.25161       -2.56303
C        -21.11115        9.61959       -3.37704
N        -21.89699        9.10212       -4.06828
C        -20.29828       11.66212       -2.45047
N        -20.44136       12.81130       -2.35974
C        -19.28066        8.10559       -1.54760
C        -18.64898        7.89644       -0.31720
C        -17.96424        9.12399        0.12644
O        -17.32305        9.25497        1.14759
C        -18.65935        6.68237        0.36120
C        -19.33159        5.59746       -0.24709
C        -19.90580        5.78500       -1.51472
C        -19.87432        7.02900       -2.19316
S        -20.64189        4.32995       -2.08684
C        -20.24195        3.49708       -0.67538
C        -19.54385        4.25598        0.22545
Br       -20.70700        1.70709       -0.37836
H        -12.46574        0.75952       -0.36514
H        -13.89132       -2.39427       -3.99643
H        -11.52717       -1.64261        0.93845
H        -13.29962        2.76696       -6.10342
H         -9.33210        4.02098       -3.05582
H        -12.55916        7.42914       -3.49867
H         -9.43073        6.88405       -4.19016
H        -11.00671        5.87360       -0.83691
H         -9.45989        6.06306       -0.02783
H         -9.75841        4.60308       -0.96858
H         -7.39635        6.97196       -2.84356
H         -7.44686        6.48154       -1.16688
H         -8.43268        8.52521       -0.52787
H         -8.26006        9.23116       -3.38428
H         -8.72393       11.00129       -0.91267
H         -8.02498       11.89263       -3.69566
H         -9.42442       13.84908       -4.75629
H        -11.83850       14.64034       -4.78404
H        -14.24593       14.59467       -4.66510
H        -16.65213       13.91305       -4.25335
H        -17.96836       12.25969       -2.84519
H        -16.57933       11.24692       -0.27838
H        -18.17654        6.58281        1.32972
H        -20.32769        7.10281       -3.17562
H        -19.19798        3.88874        1.18436
