91

C         -5.72449       -3.86985       -9.81977
C         -4.98098       -4.44677       -8.84312
C         -3.91702       -5.35758       -9.12718
N         -3.05505       -6.09592       -9.35595
C         -5.14845       -4.16097       -7.45881
N         -5.26770       -3.95105       -6.32520
C         -5.53499       -4.02529      -11.30043
C         -6.25518       -3.01432      -11.94811
C         -6.34877       -2.86204      -13.32281
C         -5.66279       -3.79243      -14.12395
C         -4.92442       -4.80764      -13.49802
C         -4.85211       -4.94871      -12.08644
S         -4.15479       -5.81854      -14.66980
C         -4.80504       -4.93647      -15.95397
C         -5.59811       -3.89626      -15.55378
Br        -4.47407       -5.34149      -17.75205
C         -6.95959       -2.17823      -10.98446
O         -7.55754       -1.15725      -11.27269
C         -6.78424       -2.84337       -9.65787
C         -7.57660       -2.56195       -8.61590
C         -8.63451       -1.56216       -8.60455
C         -9.07800       -0.92540       -7.51526
C        -10.13966        0.05169       -7.51247
C        -10.53048        0.39693       -6.27798
C         -9.82164       -0.32375       -5.23001
S         -8.44433       -1.16914       -5.91388
C        -10.21169       -0.46906       -3.95437
C        -11.40052        0.11075       -3.35997
C        -11.75449       -0.47376       -2.20820
C        -10.86784       -1.54769       -1.81598
S         -9.44262       -1.57470       -2.81003
C        -11.17421       -2.44783       -0.87701
C        -10.42113       -3.63625       -0.51387
C        -10.91268       -4.88044       -0.61675
C        -10.30470       -6.07336       -0.07604
C        -11.11123       -7.14920       -0.11346
C        -12.40281       -6.89040       -0.72842
S        -12.43211       -5.25615       -1.38731
C        -13.48410       -7.69151       -0.73155
C        -13.63733       -8.96416       -0.05152
C        -14.91729       -9.35248        0.06945
C        -15.85782       -8.42782       -0.53005
S        -15.01162       -7.23678       -1.48062
C        -17.18745       -8.45479       -0.34806
C        -18.06377       -7.48353       -0.92130
S        -18.83936       -7.85386       -2.41201
C        -19.63127       -6.34716       -2.46021
C        -19.36480       -5.55975       -1.35776
C        -19.96895       -4.21097       -1.13678
C        -18.43646       -6.21928       -0.47505
C        -17.96465       -5.64454        0.75323
C        -16.84225       -4.91505        0.85892
C        -16.38512       -4.33775        2.10311
C        -15.08820       -4.10141        2.34928
C        -14.61984       -3.53375        3.59289
C        -13.38162       -3.74772        4.06241
C        -12.90606       -3.17455        5.30113
C        -11.60510       -3.12492        5.62293
C        -11.12724       -2.53681        6.85171
C         -9.82688       -2.39242        7.13264
H         -6.94864       -2.06550      -13.75090
H         -4.28892       -5.77471      -11.67512
H         -6.11085       -3.22551      -16.23301
H         -7.47985       -3.11305       -7.68453
H         -9.10857       -1.32724       -9.55563
H        -10.58347        0.43589       -8.42062
H        -11.33669        1.08878       -6.08581
H        -11.97426        0.89744       -3.82699
H        -12.64397       -0.21730       -1.65119
H        -12.13602       -2.36016       -0.37207
H         -9.45010       -3.46255       -0.05794
H         -9.31901       -6.07463        0.36643
H        -10.83455       -8.11090        0.29064
H        -12.80884       -9.51220        0.37377
H        -15.23237      -10.24467        0.59324
H        -17.64172       -9.22209        0.27025
H        -20.27439       -6.11098       -3.29677
H        -20.67495       -3.95914       -1.93581
H        -19.19583       -3.43676       -1.11501
H        -20.51817       -4.18873       -0.18991
H        -18.56527       -5.84230        1.63770
H        -16.22345       -4.74257       -0.02054
H        -17.13489       -4.12802        2.86323
H        -14.33424       -4.37257        1.61133
H        -15.31025       -2.89182        4.13630
H        -12.69703       -4.39660        3.51915
H        -13.65253       -2.76250        5.97739
H        -10.85836       -3.51226        4.93256
H        -11.86522       -2.19315        7.57361
H         -9.04797       -2.70647        6.44532
H         -9.51335       -1.93992        8.06810
