89

C         24.24728      -12.03688       -0.91237
C         23.95710      -11.25634        0.13030
C         24.13192       -9.82996        0.19910
C         23.57258       -9.27916        1.28812
C         22.91579      -10.24309        2.15814
S         23.25851      -11.88525        1.58982
C         22.07780       -9.98068        3.18029
C         21.58137       -8.68128        3.59765
C         20.50685       -8.75201        4.40423
C         20.09897      -10.11062        4.70005
S         21.29624      -11.24325        4.12859
C         18.91604      -10.46683        5.22988
C         18.46043      -11.84184        5.41313
C         17.18916      -12.27123        5.38296
C         16.80100      -13.66543        5.39832
C         15.54584      -13.87567        4.96763
C         14.85554      -12.65295        4.59070
S         15.79850      -11.25654        5.13558
C         13.75766      -12.53591        3.81884
C         13.00836      -13.59112        3.15943
C         12.28214      -13.15205        2.11369
C         12.42464      -11.72387        1.87760
S         13.13082      -10.98176        3.29361
C         12.17276      -11.09899        0.71037
C         12.48107       -9.72219        0.46632
O         12.55408       -8.75531        1.46946
C         12.77769       -9.03733       -0.68719
C         12.94748       -9.20789       -2.10121
O         12.80090      -10.21830       -2.75784
N         13.30489       -7.94660       -2.55550
C         13.36389       -6.98487       -1.56839
O         13.61853       -5.79571       -1.69338
C         13.03700       -7.69531       -0.37539
C         12.91809       -7.51303        0.97335
C         13.09474       -6.35778        1.78054
C         13.48172       -6.48401        3.06002
C         13.68768       -5.36371        3.96452
C         14.08761       -5.44354        5.24468
C         14.27644       -4.30463        6.11554
C         14.67144       -4.62738        7.35522
C         14.82479       -6.05639        7.57284
S         14.44849       -6.92846        6.08760
C         15.18944       -6.66315        8.71815
C         15.53487       -6.01520        9.97007
C         15.84929       -6.86172       10.95605
C         15.77009       -8.25297       10.57123
S         15.31225       -8.41452        8.89840
C         16.04868       -9.27425       11.39356
C         15.95047      -10.68612       11.06602
C         16.63295      -11.67990       11.65410
C         16.46933      -13.07287       11.31895
C         17.24495      -13.89252       12.04079
C         18.09664      -13.20864       13.00130
S         17.85345      -11.46766       12.88343
C         18.94213      -13.79378       13.87139
C         19.13759      -15.22395       14.03652
C         20.02592      -15.54852       14.98535
C         20.60866      -14.40331       15.63385
S         19.97286      -12.91138       15.00407
C         21.52679      -14.44826       16.60174
H         24.66430      -11.63747       -1.82888
H         24.04556      -13.10433       -0.88378
H         24.64774       -9.27084       -0.56893
H         23.59518       -8.21824        1.49193
H         21.98714       -7.74769        3.23760
H         19.95837       -7.89112        4.76020
H         18.20098       -9.68279        5.47356
H         19.24392      -12.59319        5.49376
H         17.48872      -14.45477        5.66929
H         15.11101      -14.85863        4.85910
H         13.07430      -14.63028        3.44856
H         11.69640      -13.79657        1.47230
H         11.79072      -11.67474       -0.12864
H         13.48296       -7.74146       -3.52448
H         12.91951       -5.38711        1.32860
H         13.66957       -7.48179        3.45791
H         13.48953       -4.37880        3.54626
H         14.10705       -3.28888        5.78562
H         14.84777       -3.88946        8.12626
H         15.54456       -4.94008       10.09558
H         16.13953       -6.55074       11.95169
H         16.36567       -9.04447       12.40914
H         15.24142      -10.94258       10.27989
H         15.77903      -13.41191       10.55802
H         17.23728      -14.96499       11.91274
H         18.60563      -15.96483       13.45810
H         20.28623      -16.56402       15.24827
H         21.90780      -15.39086       16.97878
H         21.92584      -13.54039       17.04366
