101

C        -13.56912       -3.50105        5.10059
C        -13.97279       -4.63771        5.72039
C        -14.91344       -4.65062        6.79185
N        -15.68230       -4.67070        7.65963
C        -13.47687       -5.92524        5.36323
N        -13.06843       -6.96902        5.06399
C        -13.98626       -2.09863        5.44629
C        -13.25055       -1.21641        4.65367
C        -13.45294        0.15613        4.59375
C        -14.46241        0.69979        5.40879
C        -15.14547       -0.15190        6.28958
C        -14.92096       -1.55663        6.32533
S        -16.25660        0.74527        7.26626
C        -15.90786        2.18557        6.45620
C        -14.95775        2.04418        5.48224
Br       -16.73572        3.81863        6.85049
C        -12.26476       -1.92728        3.84488
O        -11.35022       -1.39312        3.25358
C        -12.60396       -3.38321        3.97041
C        -12.17307       -4.28068        3.06540
C        -11.37159       -3.91094        1.94403
O        -11.98004       -3.55516        0.75781
C        -11.02373       -3.23222       -0.14017
C         -9.77893       -3.38434        0.41577
N         -8.55824       -3.12729       -0.28479
O         -8.64881       -2.72135       -1.45213
O         -7.50281       -3.33939        0.32701
C         -9.98259       -3.82808        1.76061
N         -8.97294       -4.09387        2.64473
C         -9.03486       -4.43562        3.97343
C         -8.04961       -4.67756        4.85623
C         -6.58357       -4.63180        4.52439
C         -8.39747       -4.97301        6.29767
N         -7.98673       -6.32211        6.62367
C         -6.84900       -6.66486        7.30883
C         -6.32567       -7.89132        7.43459
C         -5.14054       -8.11149        8.19042
S         -5.05519       -9.49604        9.19194
C         -3.48158       -9.10565        9.78071
C         -3.16380       -7.80271        9.40403
C         -3.93717       -7.42081        8.23893
C         -3.45919       -6.36188        7.26169
C         -2.94289       -7.05856        6.05746
N         -2.49550       -7.60561        5.13590
C         -2.34004       -5.46432        7.83807
C         -2.28788       -5.46056        9.36620
C         -2.06197       -6.89284        9.91619
C         -2.06069       -6.82365       11.39221
N         -2.04356       -6.76210       12.55181
C         -2.75922      -10.03806       10.58922
C         -2.80367      -11.36560       10.36153
C         -2.02032      -12.32341       11.11147
C         -2.11876      -12.55092       12.42675
C         -1.01054      -13.24018       13.15320
O         -0.16780      -13.99142       12.69853
C         -1.09814      -12.74705       14.54213
C         -0.24352      -13.04335       15.58816
C         -0.49605      -12.43933       16.82664
C         -1.54757      -11.48000       16.95241
C         -1.77751      -10.86892       18.18911
C         -1.01789      -11.23301       19.29285
C         -0.01137      -12.18459       19.19153
C          0.26109      -12.77628       17.95739
F         -1.27469      -10.66923       20.48005
C         -2.37645      -11.18420       15.86017
C         -2.19496      -11.87874       14.67822
C         -3.00480      -11.98668       13.44356
C         -4.35995      -11.97261       13.41697
C         -5.08754      -12.62636       12.37805
N         -5.69028      -13.22891       11.59052
C         -5.14877      -11.50028       14.50601
N         -5.77903      -11.10615       15.39628
H        -12.87347        0.77209        3.91136
H        -15.50813       -2.14769        7.01793
H        -14.61551        2.85141        4.84522
H        -12.48058       -5.31788        3.06705
H        -11.37765       -2.92142       -1.11402
H         -8.01414       -3.96119        2.30958
H        -10.04852       -4.49678        4.34522
H         -6.38978       -4.50819        3.45611
H         -6.08612       -5.56028        4.82033
H         -6.10389       -3.80153        5.05247
H         -9.47828       -4.89934        6.46979
H         -7.93083       -4.23336        6.95915
H         -8.41972       -7.05971        6.07176
H         -6.37851       -5.80465        7.78086
H         -6.84806       -8.74789        7.01714
H         -4.28938       -5.71534        6.96480
H         -2.48460       -4.43904        7.47256
H         -1.35291       -5.77133        7.46561
H         -3.22750       -5.03829        9.75335
H         -1.48810       -4.78916        9.70314
H         -1.09439       -7.26858        9.56294
H         -2.08931       -9.64793       11.35156
H         -3.38318      -11.79145        9.54285
H         -1.24601      -12.83181       10.53461
H          0.57384      -13.74419       15.44310
H         -2.56419      -10.12996       18.31826
H          0.55136      -12.46452       20.07603
H          1.05178      -13.52123       17.89293
H         -3.16773      -10.44754       15.96823
