116

C         -3.36960       -0.49016       -0.17764
C         -2.63250       -1.55551        0.21373
C         -1.20657       -1.52472        0.23144
N         -0.04930       -1.47950        0.24383
C         -3.24340       -2.73024        0.73658
N         -3.75897       -3.68285        1.15979
C         -2.85167        0.84909       -0.57145
C         -3.83112        1.79486       -0.25562
C         -3.70314        3.15282       -0.50170
C         -2.53379        3.58192       -1.16818
C         -1.56795        2.62790       -1.53269
C         -1.70330        1.24878       -1.23740
S         -0.25568        3.36821       -2.37993
C         -0.94982        4.90057       -2.24775
C         -2.15041        4.90024       -1.59110
Br        -0.15562        6.44892       -2.93970
C         -5.04927        1.12741        0.23179
O         -5.98457        1.66618        0.78159
C         -4.82448       -0.32652       -0.06796
C         -5.78033       -1.16975       -0.49104
C         -7.13248       -0.75030       -0.67182
S         -7.58966       -0.18999       -2.23581
C         -9.15595        0.21275       -1.71437
C         -9.38189       -0.09960       -0.38815
C        -10.68965        0.15357        0.29385
C         -8.20848       -0.70249        0.20772
C         -8.15161       -1.14488        1.57535
C         -7.42111       -2.17088        2.04160
C         -7.40894       -2.58557        3.42116
C         -7.03094       -1.79122        4.43441
C         -6.99339       -2.30956        5.75606
N         -7.77436       -3.26575        6.25231
C         -7.30829       -3.62040        7.48042
C         -6.18514       -2.94267        7.90367
S         -5.72614       -1.75202        6.83812
C         -5.60134       -3.57944        9.08220
C         -6.01627       -5.06167        8.73631
C         -7.54644       -4.89820        8.29958
C         -8.10687       -6.08043        7.47531
C         -7.43562       -6.40466        6.14574
C         -8.46018       -4.60546        9.53564
C         -9.94482       -4.38888        9.23931
N         -5.52803       -5.95410        9.82408
C         -4.35585       -5.26399       10.47451
S         -3.90682       -3.81266        9.45442
C         -5.34873       -7.32272        9.53466
C         -4.87857       -8.31961       10.30150
C         -4.59412       -8.26027       11.71138
C         -3.95912       -9.34275       12.17872
C         -3.68050      -10.34782       11.16675
S         -4.45307       -9.88703        9.64456
C         -2.94143      -11.45958       11.34959
C         -2.24656      -11.82709       12.57172
C         -1.63037      -13.01552       12.51817
C         -1.80381      -13.69606       11.25737
S         -2.67060      -12.68936       10.11916
C         -1.39427      -14.95307       11.02684
C         -1.61326      -15.72274        9.81794
C         -1.20300      -15.45412        8.57286
C         -1.87774      -16.19752        7.45729
O         -2.49631      -17.23960        7.51776
C         -1.69919      -15.35666        6.26209
C         -2.27578      -15.57125        5.01978
C         -2.04803      -14.62434        4.01407
C         -1.27569      -13.46101        4.30326
C         -1.06715      -12.51302        3.29298
C         -1.59248      -12.71839        2.02224
C         -2.33846      -13.85122        1.72790
C         -2.57270      -14.80056        2.72364
F         -1.36864      -11.80992        1.06398
C         -0.72107      -13.27398        5.58537
C         -0.89808      -14.24488        6.56127
C         -0.39860      -14.38678        7.95968
C          0.72430      -13.81502        8.45853
C          1.29052      -14.19331        9.71012
N          1.79016      -14.49798       10.71481
C          1.50092      -12.86974        7.72443
N          2.13531      -12.10676        7.12765
H         -4.50033        3.84251       -0.23899
H         -0.94345        0.54999       -1.57425
H         -2.74695        5.78800       -1.41905
H         -5.53852       -2.16490       -0.85325
H         -9.85100        0.66265       -2.41036
H        -11.32794        0.80872       -0.31008
H        -10.54320        0.64424        1.26063
H        -11.22536       -0.78757        0.45037
H         -8.78680       -0.61198        2.28084
H         -6.82629       -2.79329        1.37735
H         -7.66308       -3.62943        3.59696
H         -6.69150       -0.77493        4.25674
H         -6.08734       -3.20942        9.99145
H         -5.46265       -5.36345        7.82745
H         -8.09767       -6.98129        8.10074
H         -9.15790       -5.89183        7.22710
H         -6.35401       -6.51515        6.23130
H         -7.65228       -5.63945        5.39379
H         -7.83882       -7.34487        5.75463
H         -8.37119       -5.42974       10.25263
H         -8.12854       -3.70390       10.06236
H        -10.41868       -5.28178        8.82421
H        -10.09987       -3.55266        8.55119
H        -10.47613       -4.15588       10.16959
H         -3.47414       -5.90431       10.57210
H         -4.66006       -4.92016       11.46884
H         -5.54336       -7.53970        8.48380
H         -4.89208       -7.42406       12.32649
H         -3.69515       -9.46141       13.21899
H         -2.22012      -11.19867       13.45050
H         -1.07068      -13.44104       13.34105
H         -0.92016      -15.51325       11.83293
H         -2.25755      -16.58938        9.98327
H         -2.88897      -16.45230        4.85066
H         -0.48668      -11.61208        3.47393
H         -2.73228      -13.98856        0.72579
H         -3.16208      -15.68236        2.48037
H         -0.16531      -12.36278        5.78296
