95

C         -5.04069        1.99113        5.05664
C         -3.89336        2.43832        5.62619
C         -3.07761        1.63623        6.47862
N         -2.40156        1.00280        7.17818
C         -3.40989        3.76752        5.46672
N         -2.97454        4.83292        5.31622
C         -5.61772        0.62564        5.24665
C         -6.95373        0.63932        4.84755
C         -7.79502       -0.46868        4.92210
C         -7.26722       -1.66395        5.46606
C         -5.91609       -1.69039        5.83912
C         -5.06793       -0.56578        5.70754
S         -5.46330       -3.23445        6.46592
C         -7.03111       -3.82989        6.29320
C         -7.89733       -2.92880        5.73219
Br        -7.52615       -5.55788        6.82063
C         -7.33278        1.97513        4.36093
O         -8.47365        2.33190        4.14917
C         -6.05540        2.78118        4.30747
C         -5.93586        3.95202        3.65437
C         -6.97300        4.70835        2.97629
C         -7.70016        4.37189        1.90148
C         -8.80845        5.16427        1.41767
C         -9.63419        4.47544        0.61707
C         -9.20628        3.10217        0.40215
S         -7.54272        2.90681        0.96972
C         -9.98612        2.07967        0.00603
C        -11.42310        2.13578       -0.20167
C        -12.01082        0.93111       -0.14554
C        -11.07179       -0.15437        0.06636
S         -9.43276        0.41084       -0.10994
C        -11.43549       -1.40273        0.39382
C        -10.52560       -2.48961        0.58525
S         -9.67396       -2.69194        2.07502
C         -8.94053       -4.20012        1.60751
C         -9.39818       -4.55267        0.34830
C        -10.27299       -3.56579       -0.23965
C        -10.89144       -3.70534       -1.48794
C        -10.62085       -4.94862       -2.09735
S        -11.50304       -5.29754       -3.62363
C         -9.74039       -5.92276       -1.51520
O         -9.51377       -7.09036       -2.21896
C         -9.09443       -5.77541       -0.26997
C         -8.08303       -4.85942        2.54806
C         -6.95110       -5.48327        2.18160
C         -6.07280       -6.17004        3.11426
C         -4.75475       -5.94711        3.23831
C         -3.88834       -6.58061        4.20674
C         -2.73097       -5.92449        4.39469
C         -2.60929       -4.72727        3.57820
S         -3.87694       -4.73598        2.34355
C         -1.77349       -3.68706        3.75992
C         -0.81426       -3.48837        4.83851
C         -0.34907       -2.23390        4.91690
C         -0.88073       -1.33706        3.91214
S         -1.80484       -2.25316        2.74768
C         -0.70537       -0.00050        3.89368
C         -1.31732        0.89019        2.95313
O         -2.34166        0.53439        2.07316
C         -1.11525        2.22455        2.70387
C         -0.30601        3.33631        3.10265
O          0.58703        3.34338        3.92781
N         -0.76671        4.38694        2.33343
C         -1.80794        4.05780        1.49014
O         -2.42896        4.80864        0.76174
C         -2.00046        2.65803        1.70883
C         -2.70920        1.58570        1.24205
C         -3.61486        1.40681        0.16588
C         -3.69407        2.26068       -0.86097
H         -8.82596       -0.40413        4.58369
H         -4.02597       -0.67602        5.98034
H         -8.93979       -3.13983        5.52701
H         -4.99485        4.49110        3.63164
H         -7.16735        5.67532        3.44092
H         -8.98830        6.18035        1.73955
H        -10.55145        4.88384        0.21852
H        -11.97794        3.05892       -0.29530
H        -13.08011        0.78094       -0.20481
H        -12.49021       -1.64240        0.48917
H        -11.54401       -2.96850       -1.93515
H        -10.81268       -6.41047       -3.91379
H         -8.77101       -7.55645       -1.80094
H         -8.47687       -6.54582        0.16350
H         -8.35448       -4.81020        3.59762
H         -6.61810       -5.47507        1.14572
H         -6.55433       -6.88857        3.77433
H         -4.17146       -7.47527        4.74424
H         -1.97749       -6.23570        5.10413
H         -0.54860       -4.27555        5.53436
H          0.34153       -1.90173        5.69164
H         -0.08423        0.45549        4.66204
H         -0.40480        5.32245        2.39644
H         -4.21409        0.49972        0.15465
H         -3.09548        3.16133       -0.93975
H         -4.37236        2.06502       -1.68573
