89

C          2.31103        3.39770       -2.56046
C          3.32302        2.71754       -2.01787
C          4.54460        3.28756       -1.51837
C          5.39039        2.37790       -1.01391
C          4.89735        1.01163       -1.08100
S          3.29503        0.99028       -1.83332
C          5.53638       -0.09205       -0.64636
C          6.84736       -0.15489       -0.02672
C          7.23747       -1.39383        0.31065
C          6.27391       -2.42094       -0.02436
S          4.85635       -1.70645       -0.75764
C          6.44871       -3.73071        0.22625
C          5.50324       -4.72864       -0.13867
O          4.67839       -4.65109       -1.26092
C          5.18955       -5.93344        0.43770
C          5.52557       -6.78516        1.53164
O          6.37185       -6.60163        2.38337
N          4.68486       -7.86977        1.39707
C          3.84887       -7.79929        0.30430
O          3.04891       -8.63322       -0.06627
C          4.16624       -6.54161       -0.28834
C          3.81316       -5.72813       -1.33118
C          2.84286       -5.86273       -2.35203
C          1.70899       -6.55497       -2.15890
C          0.76838       -6.80402       -3.20405
S          1.30127       -6.93717       -4.83846
C         -0.25871       -7.26643       -5.44864
C         -1.18929       -7.35427       -4.42203
C         -0.59318       -7.06277       -3.14369
S         -1.53259       -7.08294       -1.67802
O         -1.36882       -5.76289       -1.10791
O         -1.11883       -8.29045       -0.99610
C         -3.21668       -7.27251       -2.22932
C         -3.32094       -8.25591       -3.38010
C         -2.63601       -7.70649       -4.62016
C         -0.39195       -7.45517       -6.85642
C         -1.51252       -7.11414       -7.51431
C         -1.65600       -7.40428       -8.89015
O         -0.99670       -8.44541       -9.52615
C         -2.42947       -6.82150       -9.85453
C         -3.35479       -5.75181      -10.06400
O         -3.77641       -4.95540       -9.24549
N         -3.66189       -5.83234      -11.40881
C         -3.01465       -6.85594      -12.07574
O         -3.09115       -7.14782      -13.25443
C         -2.22902       -7.48665      -11.06467
C         -1.34089       -8.50886      -10.87397
C         -0.80301       -9.46351      -11.77484
C          0.04704      -10.39394      -11.31596
C          0.70538      -11.37609      -12.14930
C          1.59809      -12.28807      -11.72580
C          2.28968      -13.20825      -12.59369
C          3.24113      -13.92059      -11.97282
C          3.37598      -13.61813      -10.55687
S          2.11644      -12.48862      -10.06917
C          4.33342      -14.07555       -9.72684
C          5.43343      -14.95184      -10.09025
C          6.30684      -15.17227       -9.09773
C          5.95614      -14.50137       -7.87258
S          4.45971      -13.62922       -8.02080
C          6.67355      -14.51636       -6.74715
H          2.34006        4.47604       -2.66446
H          1.41907        2.88944       -2.91568
H          4.74814        4.34849       -1.55296
H          6.35124        2.63814       -0.59531
H          7.45850        0.71859        0.14813
H          8.18512       -1.61813        0.78156
H          7.34598       -4.06555        0.73952
H          4.68838       -8.65983        2.02113
H          3.07484       -5.37455       -3.29435
H          1.47557       -6.96743       -1.17897
H         -3.58766       -6.28454       -2.52263
H         -3.80279       -7.62097       -1.37404
H         -2.88008       -9.22132       -3.10485
H         -4.37559       -8.43520       -3.61863
H         -3.16484       -6.80508       -4.95325
H         -2.72687       -8.46030       -5.41074
H          0.45466       -7.87875       -7.39703
H         -2.34724       -6.62992       -7.02470
H         -4.29047       -5.19485      -11.86579
H         -1.07530       -9.40521      -12.82438
H          0.28963      -10.40859      -10.25192
H          0.47188      -11.33027      -13.21270
H          2.07031      -13.29019      -13.64923
H          3.86227      -14.64022      -12.48583
H          5.55396      -15.37180      -11.07810
H          7.19458      -15.78081       -9.19542
H          7.61006      -15.05769       -6.67640
H          6.34436      -13.97805       -5.86293
