87

C          3.25684        3.07849       -5.57829
C          2.66972        3.98719       -6.41988
S          3.01208        3.59353       -8.07269
C          3.92266        2.22540       -7.62780
Cl         4.63791        1.24873       -8.83990
C          3.96699        2.07210       -6.27514
C          4.57556        1.10815       -5.40870
O          5.23505        0.14125       -5.73117
C          4.17298        1.60046       -4.01149
C          3.35164        2.86336       -4.15057
C          2.83192        3.65376       -3.18107
C          2.07996        4.82852       -3.48480
N          1.46830        5.77805       -3.72740
C          2.98724        3.40242       -1.79080
N          3.11390        3.20037       -0.65507
C          4.50390        0.90806       -2.90605
C          5.28820       -0.30188       -2.84617
C          4.83294       -1.45681       -2.31554
C          5.87935       -2.47938       -2.45125
C          7.02145       -1.78987       -3.07254
C          6.65674       -0.51533       -3.28640
C          8.30366       -2.28268       -3.41159
N          9.37795       -2.63946       -3.66428
C          5.75643       -3.77697       -2.10036
C          6.78528       -4.80042       -2.25721
C          6.28697       -6.00260       -1.89163
C          4.91654       -5.77966       -1.44982
C          4.59694       -4.47900       -1.54673
C          3.33128       -3.96708       -1.18931
N          2.28712       -3.55636       -0.88590
C          7.04425       -7.22640       -1.95750
N          6.95538       -8.28743       -1.04669
C          6.17004       -8.40590        0.16051
C          6.86445       -7.82128        1.37824
C          7.86399       -9.31009       -1.35714
O          8.05328      -10.34730       -0.75493
C          8.53718       -8.81087       -2.56681
C          7.96221       -7.53418       -2.88811
C          8.63080       -7.04075       -4.11063
O          8.40083       -6.01018       -4.71002
N          9.57304       -8.05409       -4.38738
C         10.51297       -7.95274       -5.49465
C         11.83304       -7.31973       -5.07766
C          9.50249       -9.08779       -3.44614
C         10.38184      -10.22304       -3.47051
C         10.36795      -11.24062       -2.59613
C         11.27639      -12.32244       -2.66297
S         11.89058      -12.89501       -4.17352
C         11.76483      -13.11407       -1.65508
C         11.58774      -13.13205       -0.23771
C         12.33300      -14.06887        0.38676
S         13.27973      -14.99706       -0.77621
N         12.73033      -16.37321       -1.16084
O         14.66480      -14.58622       -0.71773
C         12.67695      -14.08793       -2.10725
C         12.94156      -14.04087       -3.44929
C         13.85448      -14.82131       -4.23236
C         14.51288      -14.56774       -5.43167
C         14.55939      -13.40649       -6.29229
O         14.73396      -13.49512       -7.49935
O         14.49216      -12.19455       -5.68718
C         15.18170      -15.77976       -5.71518
N         15.00876      -16.69205       -4.76486
O         14.18759      -16.09224       -3.83740
H          2.06324        4.85926       -6.21783
H          4.17307        1.20971       -1.91810
H          3.85006       -1.58246       -1.89450
H          7.26805        0.24932       -3.74390
H          7.78393       -4.64021       -2.62879
H          4.24424       -6.55623       -1.12026
H          5.99992       -9.47383        0.35247
H          5.18224       -7.97474        0.02251
H          7.77601       -8.37983        1.61860
H          6.20052       -7.87543        2.24691
H          7.14175       -6.77572        1.21799
H         10.06343       -7.34358       -6.28711
H         10.68396       -8.94498       -5.92577
H         11.67923       -6.30451       -4.69814
H         12.51598       -7.26508       -5.93190
H         12.32451       -7.89987       -4.28983
H         11.12545      -10.22021       -4.26040
H          9.67595      -11.27958       -1.77133
H         10.92321      -12.45499        0.28809
H         12.37742      -14.27769        1.44250
H         13.17546      -17.11272       -0.61763
H         14.41449      -12.23818       -4.71711
H         15.80242      -16.01707       -6.56834
