118

C         -3.74328        4.74652        5.93502
C         -4.98663        4.88206        5.42319
C         -5.88385        5.89002        5.87980
N         -6.57295        6.75869        6.22311
C         -5.49226        3.97536        4.44772
N         -5.93994        3.21696        3.69260
C         -3.30478        5.29772        7.22684
C         -2.53297        4.30490        7.85121
C         -2.09847        4.42526        9.15585
C         -2.35623        5.63595        9.82035
C         -2.99089        6.71226        9.12921
C         -3.48388        6.52720        7.83061
C         -3.12225        7.95606        9.75879
C         -2.69640        8.13123       11.07380
C         -2.14784        7.06193       11.77710
C         -1.96975        5.82511       11.15326
C         -2.17440        3.25434        6.85963
O         -1.51593        2.25569        7.04748
C         -2.71446        3.77916        5.55726
C         -1.97477        3.66641        4.43469
C         -2.08182        4.53543        3.29754
S         -2.49217        6.22056        3.48546
C         -1.79484        4.33694        1.96538
C         -1.34642        3.25661        1.12122
O         -1.07890        2.12435        1.48315
N         -1.29079        3.79561       -0.15672
C         -0.91267        3.04203       -1.33432
C         -2.12363        2.41162       -2.00066
C         -1.70989        5.10884       -0.23406
O         -1.82260        5.80405       -1.22082
C         -1.99192        5.45771        1.13677
C         -2.38986        6.57793        1.81542
C         -2.69017        7.88577        1.39843
C         -2.05050        8.42485        0.35797
C         -2.39923        9.70879       -0.14025
C         -2.21260       10.07613       -1.42350
C         -2.65675       11.45430       -1.55140
C         -3.05929       11.84047       -0.26824
C         -2.92064       10.83610        0.59535
C         -3.47844       13.23997        0.15140
N         -3.82616       14.40098        0.49953
C         -2.87100       12.24192       -2.59838
C         -3.19729       13.64015       -2.70712
C         -3.52049       13.89619       -3.98893
C         -3.39280       12.67729       -4.74796
C         -2.99873       11.73565       -3.89239
C         -2.60344       10.32521       -4.29836
N         -2.27552        9.15514       -4.63515
C         -3.87477       15.17177       -4.50003
C         -4.03046       16.24511       -3.72435
C         -4.40267       17.46934       -4.27819
S         -3.82871       18.88661       -3.52085
C         -5.18262       17.79210       -5.34820
C         -5.94996       17.09014       -6.32934
O         -6.09072       15.88227       -6.38386
N         -6.45589       18.07024       -7.16317
C         -7.33013       17.79166       -8.28776
C         -7.04309       16.46136       -8.97324
C         -6.15030       19.35773       -6.73133
O         -6.51348       20.41983       -7.20534
C         -5.29164       19.15564       -5.58368
C         -4.54195       19.89143       -4.70836
C         -4.39068       21.27522       -4.67250
C         -3.38487       21.93090       -4.09087
C         -3.26202       23.36566       -4.02748
C         -4.15952       24.31039       -4.35419
C         -3.93902       25.77055       -4.42800
C         -3.14570       26.51675       -3.62069
C         -3.11587       27.93240       -3.69538
N         -3.09397       29.09098       -3.76493
C         -2.32825       25.94824       -2.58000
N         -1.66470       25.49935       -1.75920
C         -4.92221       26.28468       -5.43184
C         -5.84401       25.27224       -5.70460
C         -5.54080       24.09843       -4.92708
O         -6.38544       23.24685       -4.74731
C         -6.91946       25.35407       -6.57155
C         -7.09037       26.55121       -7.23944
C         -6.17078       27.61603       -7.01499
C         -5.08813       27.47277       -6.11173
C         -6.36035       28.80885       -7.71304
C         -7.42356       28.94708       -8.60946
C         -8.31725       27.90029       -8.81783
C         -8.15480       26.70151       -8.13283
H         -1.54491        3.61755        9.62508
H         -3.97881        7.34397        7.31212
H         -3.55633        8.80299        9.23026
H         -2.80353        9.10168       11.55192
H         -1.84599        7.19441       12.81286
H         -1.52586        5.00983       11.72056
H         -1.13351        2.97088        4.42921
H         -0.19956        2.26462       -1.04317
H         -0.41813        3.71780       -2.04197
H         -2.62407        1.71743       -1.31836
H         -1.82026        1.86064       -2.89550
H         -2.85440        3.17200       -2.29738
H         -3.45588        8.44127        1.93564
H         -1.26860        7.90036       -0.18349
H         -1.78215        9.42883       -2.16801
H         -3.11601       10.86170        1.65586
H         -3.14237       14.38568       -1.93720
H         -3.53974       12.57843       -5.81230
H         -4.02121       15.20816       -5.57517
H         -3.84947       16.22570       -2.65451
H         -7.22849       18.60491       -9.01525
H         -8.36203       17.80879       -7.92012
H         -6.00540       16.42215       -9.32196
H         -7.71174       16.30331       -9.82121
H         -7.20369       15.61399       -8.30089
H         -5.18708       21.75497       -5.19428
H         -2.54458       21.38063       -3.66530
H         -2.26347       23.63932       -3.68642
H         -7.58287       24.50453       -6.70694
H         -4.40129       28.30226       -5.98384
H         -5.67952       29.64444       -7.57011
H         -7.55160       29.88147       -9.14855
H         -9.14222       28.01562       -9.51548
H         -8.86077       25.89120       -8.30254
