96

C        -12.72290       -9.87616        8.54717
C        -13.34873      -11.10871        8.36511
F        -14.58259      -11.29466        8.85324
C        -12.71299      -12.13049        7.67554
F        -13.33516      -13.29883        7.47129
C        -11.42519      -11.95349        7.18668
C        -10.76791      -10.73042        7.37241
C        -11.43469       -9.65095        8.03397
C        -10.81390       -8.38012        8.13029
C         -9.55075       -8.19804        7.58233
C         -8.90198       -9.30670        7.01393
C         -9.47032      -10.55944        6.89177
C         -7.61005       -8.89893        6.45025
O         -6.62022       -9.58755        6.34482
C         -7.75027       -7.42701        6.26054
C         -8.68932       -7.00482        7.32501
C         -8.65677       -5.86045        8.04239
C         -7.68079       -4.85235        7.75356
N         -6.90143       -4.03604        7.50886
C         -9.50517       -5.62093        9.15055
N        -10.21488       -5.45309       10.06073
C         -7.39830       -6.78742        5.12987
C         -6.87219       -7.46761        3.97761
S         -5.18880       -7.54715        3.70373
C         -5.33083       -8.41155        2.20590
C         -6.68005       -8.56073        1.87806
C         -7.55839       -8.08021        2.93496
C         -9.05833       -8.22240        2.85169
C         -9.51262       -9.20019        1.76571
C         -8.76911       -8.98632        0.44884
O         -9.06185       -7.69733       -0.08440
C         -7.25884       -9.18939        0.62441
C         -4.12576       -8.83916        1.47207
C         -3.89544       -9.95636        0.64670
C         -4.78332      -11.07686        0.57282
N         -5.46965      -12.00422        0.56600
C         -2.62127       -9.88972        0.03546
C         -1.84166       -8.92240        0.56079
S         -2.62888       -7.92523        1.63601
S         -0.24968       -8.93519        0.00578
C         -0.65664      -10.17899       -1.05698
C         -1.93528      -10.59607       -0.96436
C         -2.28878      -11.54483       -1.95748
C         -3.61697      -12.05067       -2.15435
N         -4.70777      -12.39949       -2.32639
C         -1.19320      -11.82613       -2.80795
S          0.22059      -10.93355       -2.25055
C         -1.05050      -12.62104       -4.07725
C          0.10310      -13.35970       -4.46453
C          0.22322      -14.00292       -5.75866
N          1.33049      -14.71170       -6.07174
C          2.30305      -14.85898       -5.14245
C          2.20676      -14.24868       -3.91471
N          1.12199      -13.49911       -3.58467
C          3.19585      -14.41107       -2.90385
N          4.01283      -14.56299       -2.08760
C          3.37238      -15.74603       -5.49776
N          4.22624      -16.48461       -5.76185
C         -0.79680      -13.98833       -6.72234
C         -2.03192      -13.44961       -6.28793
C         -2.13377      -12.68285       -4.99989
N         -3.32181      -12.07011       -4.89149
S         -4.31537      -12.66965       -6.06535
N         -3.22886      -13.60074       -6.87555
C         -0.63426      -14.63168       -8.05116
C         -1.15897      -14.34217       -9.25409
C         -0.98584      -15.19333      -10.41565
C         -1.98618      -15.05839      -11.30169
C         -2.98997      -14.10459      -10.85209
S         -2.24329      -13.03805       -9.66638
C         -4.31194      -14.17646      -11.09905
C         -4.95994      -15.18711      -11.91805
C         -6.28432      -15.26889      -11.72880
C         -6.77782      -14.31306      -10.77067
S         -5.53256      -13.19935      -10.27607
C         -8.01914      -14.28462      -10.27941
H        -13.26129       -9.09974        9.08622
H        -10.95510      -12.77305        6.64953
H        -11.36151       -7.55970        8.58635
H         -8.92834      -11.35262        6.38484
H         -7.67069       -5.74532        4.98000
H         -9.50052       -7.23655        2.66648
H         -9.44376       -8.57881        3.81361
H        -10.59071       -9.07729        1.61127
H         -9.34960      -10.23098        2.10814
H         -9.13354       -9.71441       -0.28699
H         -8.48510       -7.05084        0.35738
H         -6.72647       -8.82443       -0.26166
H         -7.13165      -10.26561        0.71035
H          0.02448      -15.50037       -8.01287
H         -0.17931      -15.90608      -10.51211
H         -2.08207      -15.65165      -12.19856
H         -4.41899      -15.85030      -12.57709
H         -6.92285      -15.99313      -12.21463
H         -8.76674      -15.00865      -10.58480
H         -8.31687      -13.55100       -9.53667
