115

C         10.13550       -2.29302        2.15986
C         10.39308       -2.77152        0.94056
C         11.28419       -2.17304       -0.01691
C         11.18317       -2.71162       -1.24073
C         10.19370       -3.77261       -1.33173
S          9.62433       -4.19290        0.29322
C          9.63284       -4.23701       -2.46488
C          9.81282       -3.68062       -3.79960
C          8.72702       -3.83526       -4.57979
C          7.65946       -4.52949       -3.88933
S          8.29518       -5.38051       -2.49883
C          6.35338       -4.37931       -4.15314
C          5.28595       -4.84057       -3.29711
C          4.92826       -4.45558       -2.04550
C          5.50879       -3.32676       -1.22063
C          6.45211       -2.29085       -1.82386
C          3.81874       -5.27163       -1.47838
C          3.25884       -5.15520       -0.07453
C          4.19619       -4.94157        1.10934
C          3.32486       -6.16378       -2.36325
S          4.20196       -6.07707       -3.87719
O          3.34772       -5.51028       -4.90632
O          4.92177       -7.31700       -4.09970
C          2.26822       -7.13450       -2.24348
C          0.97709       -6.88004       -1.95849
C         -0.02672       -7.87654       -2.18432
S          0.14782       -8.91236       -3.54481
C         -1.28354       -9.76731       -3.23291
C         -1.93837       -9.25265       -2.12424
C         -1.23150       -8.13409       -1.53886
C         -1.77791       -7.41969       -0.33043
C         -3.28400       -7.70189       -0.08693
C         -3.70544       -7.09621        1.25462
C         -3.57868       -9.22430       -0.17473
C         -5.02661       -9.58776        0.17931
C         -3.25869       -9.74633       -1.59005
C         -1.63009      -10.89974       -4.01944
C         -1.34138      -11.02303       -5.32405
C         -1.59149      -12.15216       -6.19894
C         -2.31649      -13.29807       -6.04542
C         -3.08336      -13.63275       -4.79995
C         -2.21947      -14.30814       -3.73431
C         -2.32347      -14.15299       -7.25100
C         -3.13467      -15.42980       -7.40504
C         -3.24812      -16.41502       -6.24852
C         -1.62975      -13.63037       -8.28817
S         -0.90303      -12.11439       -7.82134
O         -1.50465      -11.01933       -8.55869
O          0.53894      -12.26731       -7.73581
C         -1.48182      -14.17460       -9.62109
C         -1.71296      -13.49078      -10.75261
C         -1.59490      -14.09224      -12.06524
C         -0.90538      -13.59275      -13.10237
C         -0.84874      -14.21699      -14.40205
C         -0.04351      -13.58722      -15.26750
C          0.61427      -12.41095      -14.71995
S          0.07846      -12.14993      -13.05777
C          1.50349      -11.63080      -15.36696
C          1.96687      -11.82067      -16.73276
C          2.85600      -10.90611      -17.14330
C          3.16495       -9.92403      -16.13769
S          2.28881      -10.21401      -14.66150
C          4.01323       -8.90450      -16.29229
H         10.60907       -1.38811        2.52495
H          9.41983       -2.77511        2.81899
H         11.94233       -1.35276        0.23201
H         11.75570       -2.36654       -2.08899
H         10.67338       -3.09647       -4.09069
H          8.60961       -3.39101       -5.55722
H          6.02782       -3.82889       -5.03323
H          6.04938       -3.77081       -0.37942
H          4.66241       -2.75268       -0.82539
H          7.47572       -2.66024       -1.84201
H          6.48388       -1.40265       -1.18451
H          6.16508       -1.97436       -2.82854
H          2.72750       -6.08498        0.16666
H          2.49913       -4.36426       -0.07045
H          4.99962       -5.68362        1.13309
H          3.62814       -5.02566        2.04249
H          4.62675       -3.93970        1.12424
H          2.58408       -8.13107       -2.55964
H          0.64934       -5.88852       -1.66224
H         -1.63293       -6.33872       -0.44482
H         -1.19780       -7.73729        0.54564
H         -3.86037       -7.19607       -0.87480
H         -3.25754       -7.63954        2.09336
H         -4.79333       -7.11746        1.37580
H         -3.39565       -6.04825        1.32280
H         -2.92525       -9.74409        0.54006
H         -5.74045       -9.03816       -0.44370
H         -5.24975       -9.36967        1.22842
H         -5.20657      -10.65882        0.03204
H         -4.04622       -9.43337       -2.28892
H         -3.26748      -10.84338       -1.56834
H         -2.12982      -11.67512       -3.46556
H         -0.83299      -10.20035       -5.83444
H         -3.97940      -14.21474       -5.01373
H         -3.52822      -12.72155       -4.38772
H         -2.19870      -15.39340       -3.85426
H         -2.61938      -14.10247       -2.73557
H         -1.18011      -13.95804       -3.75123
H         -2.70311      -16.01907       -8.22347
H         -4.14445      -15.15517       -7.73326
H         -2.29404      -16.55959       -5.73739
H         -3.58039      -17.38867       -6.62342
H         -4.01080      -16.11477       -5.52650
H         -1.14803      -15.20802       -9.67585
H         -2.03264      -12.44877      -10.73192
H         -2.13737      -15.02749      -12.19318
H         -1.40963      -15.10852      -14.64622
H          0.10405      -13.92995      -16.28126
H          1.62943      -12.62669      -17.36702
H          3.30398      -10.89521      -18.12719
H          4.54506       -8.74443      -17.22356
H          4.19895       -8.19846      -15.48865
