108

C         -5.39561       -6.60578        1.48195
S         -5.96960       -8.06471        0.80243
C         -4.39642       -8.72275        0.72725
O         -4.22318       -9.95140        0.24757
C         -3.44660       -7.85569        1.22990
C         -4.02709       -6.61589        1.64267
C         -2.06449       -8.22401        1.31509
C         -1.16547       -7.68258        2.15249
C          0.19714       -8.13896        2.27855
C          0.63419       -8.64086        3.45760
C          2.01496       -9.05229        3.34650
C          2.79009       -9.56650        4.41525
N          3.42378       -9.98854        5.29104
C          2.44576       -8.82122        2.09558
C          1.32946       -8.26616        1.31877
C          1.34917       -7.93198        0.00748
C          2.38830       -8.19500       -1.02584
C          1.93984       -7.59830       -2.15593
C          0.66518       -6.97390       -1.93696
C          0.28926       -7.17857       -0.67150
C         -0.03660       -6.25012       -2.92561
N         -0.58624       -5.64939       -3.75179
C          3.59239       -9.00248       -1.01300
C          4.35305       -9.22629       -2.09323
C          5.57025      -10.01473       -2.17098
C          6.18142      -10.00249       -3.37833
C          7.48890      -10.58161       -3.58038
C          8.36344      -10.53226       -4.63140
C          8.22060       -9.86243       -6.02165
C          8.94622      -10.62384       -7.16767
N          8.88766      -10.00200       -8.49197
C          6.73411       -9.59717       -6.41572
N          6.46098       -8.97591       -7.71325
C          9.57315      -11.20376       -4.09715
C         10.79751      -11.44074       -4.59759
C         11.88109      -12.19714       -3.84472
C         11.52246      -12.50420       -2.39963
C         10.30999      -12.27001       -1.87890
C          9.32878      -11.64785       -2.72146
C          8.08570      -11.26946       -2.41929
C          7.35494      -11.40054       -1.18155
C          6.16215      -10.78864       -1.07299
C         12.19926      -13.48028       -4.57741
C         13.13865      -14.34581       -4.16674
C         13.41252      -15.60119       -4.80693
C         14.63419      -15.82734       -5.34138
C         14.64127      -17.10281       -6.01851
C         15.76585      -17.67683       -6.65514
N         16.67376      -18.17871       -7.17469
C         13.42396      -17.66676       -5.93625
C         12.56944      -16.78869       -5.12757
C         11.30567      -17.06767       -4.72808
C         10.42391      -18.18717       -5.14436
C          9.26135      -18.03264       -4.46687
C          9.33476      -16.87998       -3.59843
C         10.53341      -16.30075       -3.74151
C          8.28519      -16.45735       -2.73308
N          7.42851      -16.12657       -2.03427
C         10.54266      -19.20601       -6.16501
C          9.76103      -19.19743       -7.25593
C          9.79128      -20.21993       -8.23947
S          9.44628      -19.77630       -9.85989
C          9.63681      -21.36538      -10.42599
O          9.48384      -21.58293      -11.72825
C          9.92904      -22.25414       -9.41137
C         10.01453      -21.58405       -8.14576
C         10.11258      -23.65721       -9.64952
C         10.38444      -24.59103       -8.72698
H         -6.08612       -5.81149        1.73067
H         -5.12027      -10.26186        0.03446
H         -3.48240       -5.77211        2.04843
H         -1.74309       -9.03473        0.65975
H         -1.46421       -6.90888        2.85602
H          0.05089       -8.74133        4.36254
H          3.46385       -8.95167        1.77933
H          2.39754       -7.59433       -3.13387
H         -0.61499       -6.78263       -0.24857
H          3.87259       -9.47837       -0.08799
H          4.07885       -8.75649       -3.03428
H          5.68955       -9.48295       -4.17453
H          8.70401       -8.87871       -5.92729
H          8.57707      -11.65165       -7.23576
H         10.00945      -10.65337       -6.97203
H          7.89727       -9.98829       -8.77199
H          9.37806      -10.57959       -9.16951
H          6.33075       -8.86004       -5.72685
H          6.15677      -10.52745       -6.34862
H          6.97682       -8.09257       -7.74715
H          5.47276       -8.73220       -7.76882
H         11.11237      -11.11666       -5.57488
H         12.76978      -11.55266       -3.84538
H         12.28711      -12.94714       -1.76915
H         10.07766      -12.51115       -0.84877
H          7.76050      -11.98048       -0.36238
H          5.59806      -10.88695       -0.15344
H         11.59927      -13.71888       -5.45529
H         13.76943      -14.09821       -3.31558
H         15.47148      -15.14162       -5.32639
H         13.17703      -18.63141       -6.34329
H          8.37468      -18.64350       -4.57481
H         10.87447      -15.44008       -3.19190
H         11.26423      -19.99918       -5.99230
H          9.07314      -18.37017       -7.42517
H          9.28956      -20.69736      -12.08586
H         10.21312      -22.08520       -7.20562
H         10.02231      -23.99124      -10.68392
H         10.49099      -24.36207       -7.67317
H         10.50939      -25.62956       -9.01809
