94

C        -12.26914       -2.56393        5.37270
C        -13.56639       -2.36508        4.89039
C        -13.79593       -2.12483        3.53204
C        -12.73405       -2.09720        2.62509
C        -11.44778       -2.35485        3.08668
C        -11.20654       -2.57472        4.47457
C         -9.73007       -2.78311        4.68179
C         -9.12545       -3.37832        5.73469
C         -9.83388       -3.84144        6.87823
N        -10.40643       -4.22346        7.81357
C         -7.72518       -3.66575        5.72911
N         -6.58889       -3.86065        5.69331
C         -9.08613       -2.39626        3.38907
C        -10.15140       -2.53282        2.36222
C        -10.02770       -3.10870        1.14136
C         -8.82753       -3.80172        0.79191
N         -7.87116       -4.42364        0.58409
C        -11.09906       -3.21626        0.21580
N        -11.97997       -3.29444       -0.54170
C         -7.89217       -1.76879        3.27335
C         -7.30895       -1.16350        2.03992
N         -7.89691       -1.14499        0.86681
C         -6.99298       -0.54264        0.05500
C         -5.83900       -0.14611        0.81046
C         -4.89251        0.56151       -0.08828
O         -3.82780        1.07334        0.17138
C         -5.59170        0.49596       -1.39282
C         -6.84963       -0.18370       -1.21706
N         -7.51885       -0.23240       -2.39781
C         -6.70175        0.37190       -3.21753
C         -5.43127        0.87592       -2.65340
C         -5.95988       -0.49507        2.08715
C         -5.08111       -0.14583        3.16088
C         -4.41559       -0.99653        3.95899
C         -3.46341       -0.48927        4.90018
N         -2.87848        0.69795        4.85077
C         -1.99476        0.81158        5.87916
C         -1.89562       -0.23434        6.74787
S         -2.99292       -1.48502        6.26034
N         -1.00205       -0.12264        7.77548
C         -0.43336        1.06802        7.69854
S         -0.90189        2.06640        6.35606
C          0.50916        1.57812        8.67880
N          0.62987        2.87238        8.90030
C          1.54347        2.95011        9.89493
C          1.99825        1.63726       10.26941
C          3.02004        1.78844       11.34585
O          3.63568        0.93548       11.94600
C          3.07783        3.25892       11.53462
C          2.15315        3.87910       10.62334
N          2.18722        5.22804       10.76889
C          3.07703        5.39535       11.70773
C          3.70521        4.17548       12.26126
C          1.38866        0.69981        9.54449
C          1.57931       -0.72607        9.49250
C          1.94901       -1.47201       10.54799
C          2.21910       -2.90170       10.49884
C          2.19577       -3.73092       11.56152
C          2.80160       -5.08920       11.67509
C          2.74227       -6.08794       10.76503
C          2.13195       -5.90988        9.49023
N          1.64901       -5.75699        8.44635
C          3.19197       -7.40740       11.05108
N          3.54324       -8.48719       11.29132
C          3.31648       -5.16795       13.09440
C          2.81278       -4.04933       13.81470
C          3.22309       -3.76263       15.10904
C          4.07567       -4.66231       15.74218
C          4.52251       -5.80896       15.07192
C          4.16811       -6.05511       13.73782
C          1.82537       -3.36989       12.94316
C          0.58778       -3.01216       13.36295
C          0.24039       -2.97610       14.74497
N         -0.02635       -2.96105       15.87448
C         -0.49670       -2.90260       12.44319
N         -1.39861       -2.88363       11.71380
H        -12.14487       -2.71126        6.43962
H        -14.40902       -2.39437        5.57985
H        -14.81332       -1.96642        3.17775
H        -12.95128       -1.88831        1.58226
H         -7.27660       -1.60919        4.15166
H         -6.90736        0.52890       -4.28792
H         -4.63704        1.40395       -3.14258
H         -4.88229        0.92537        3.24481
H         -4.54151       -2.07209        3.87291
H          3.38020        6.37788       12.10006
H          4.45418        4.09765       13.02346
H          1.38820       -1.20426        8.53234
H          2.12648       -0.98970       11.50753
H          2.57939       -3.24786        9.53128
H          2.89201       -2.87316       15.63701
H          4.38722       -4.47829       16.76865
H          5.16800       -6.51223       15.59563
H          4.57966       -6.93463       13.25576
