104

C         -3.10917        7.95074       -7.17771
C         -2.08343        8.66817       -6.65888
C         -1.90781       10.05689       -6.92177
N         -1.77581       11.18909       -7.13795
C         -1.02674        8.04261       -5.93259
N         -0.14920        7.51401       -5.38374
C         -3.99371        8.40185       -8.28315
C         -4.32282        7.27244       -9.05033
C         -5.06118        7.33682      -10.21804
C         -5.54441        8.58735      -10.61911
C         -5.29161        9.73890       -9.81688
C         -4.50799        9.63603       -8.64879
C         -5.83706       10.97029      -10.20826
C         -6.60004       11.07628      -11.37263
C         -6.82203        9.95548      -12.16770
C         -6.29895        8.71773      -11.79323
C         -3.86665        6.04244       -8.37452
O         -3.99239        4.90342       -8.77014
C         -3.32079        6.50255       -7.05617
C         -3.40796        5.65243       -6.01948
C         -3.32626        5.95718       -4.59351
N         -3.20232        7.23719       -4.20047
N         -3.16793        7.52197       -2.87329
C         -3.31057        6.51439       -1.99014
N         -3.47595        5.23363       -2.38824
N         -3.48477        4.94719       -3.72239
C         -3.23756        6.80381       -0.53668
C         -3.00333        8.08070       -0.11707
C         -2.71895        8.33703        1.28402
C         -2.38583        9.48115        1.94692
C         -2.47144       10.93215        1.46435
C         -3.87489       11.49699        1.84383
N         -4.12056       12.87020        1.38955
C         -1.32170       11.84449        1.97499
N         -1.31265       13.23289        1.49931
C         -1.92197        8.99348        3.25712
C         -1.11454        9.52604        4.18840
C         -0.62173        8.74806        5.39594
C         -1.24742        7.37135        5.54873
C         -2.03568        6.82235        4.61051
C         -2.25958        7.57997        3.40997
C         -2.70811        7.18573        2.21478
C         -3.12290        5.88210        1.77207
C         -3.36851        5.71188        0.46153
C         -0.78860        9.59655        6.62308
C         -1.87500        9.61570        7.41303
C         -2.00992       10.46449        8.58764
N         -1.01971       11.33414        8.88942
N         -1.19168       12.15659        9.94046
C         -2.35150       12.06461       10.61742
N         -3.31324       11.15455       10.36588
N         -3.13928       10.33345        9.31248
C         -2.55425       12.96453       11.73807
C         -3.13224       14.17003       11.64034
C         -3.39331       15.19103       12.67767
C         -3.51130       14.98119       14.01195
C         -3.83925       16.01674       14.93449
N         -4.10096       16.85600       15.68633
C         -3.37082       13.69177       14.60730
N         -3.24838       12.64150       15.08224
C         -3.65912       16.47415       11.95488
C         -3.77213       16.19414       10.58521
C         -3.50911       14.77667       10.31909
O         -3.55701       14.24657        9.22997
C         -4.03452       17.15210        9.61900
C         -4.17486       18.47984       10.02665
C         -4.04600       18.81210       11.40385
C         -3.78402       17.79986       12.35777
C         -4.17665       20.15746       11.78484
C         -4.42632       21.15125       10.83464
C         -4.54990       20.81793        9.48933
C         -4.42509       19.48923        9.08678
H         -5.27416        6.43128      -10.77911
H         -4.33400       10.52351       -8.04631
H         -5.67517       11.86350       -9.60749
H         -7.01943       12.03737      -11.66009
H         -7.40895       10.04278      -13.07869
H         -6.49050        7.85400      -12.42697
H         -3.68102        4.61458       -6.21118
H         -2.88418        8.90687       -0.81057
H         -2.40865       10.92913        0.36725
H         -4.00882       11.46093        2.93147
H         -4.65721       10.87045        1.39973
H         -3.29934       13.43347        1.65886
H         -4.90246       13.26686        1.90844
H         -0.35845       11.38662        1.72355
H         -1.39732       11.94704        3.05680
H         -1.36871       13.25611        0.48197
H         -0.42995       13.67143        1.76250
H         -0.68411       10.50952        4.09794
H          0.45602        8.58405        5.25933
H         -1.01429        6.81045        6.44927
H         -2.46276        5.83433        4.72962
H         -3.22583        5.06829        2.48005
H         -3.67356        4.73018        0.10550
H          0.04874       10.26126        6.83562
H         -2.73902        8.99653        7.19165
H         -2.17006       12.54971       12.65843
H         -4.10538       16.86393        8.57333
H         -3.66838       18.09831       13.39523
H         -4.08421       20.44854       12.82968
H         -4.52355       22.18854       11.14612
H         -4.74114       21.59204        8.75003
H         -4.52076       19.24917        8.02958
