122

C          0.57120        3.05692        7.65364
C          1.15783        4.25905        7.46620
C          1.90978        4.55854        6.29955
N          2.49921        4.80317        5.32671
C          1.14282        5.25944        8.47568
N          1.20287        6.06117        9.31627
C          0.83530        1.83284        6.87451
C          0.75672        0.75311        7.77075
C          1.04936       -0.54364        7.40529
C          1.35809       -0.78459        6.06189
C          1.33132        0.28286        5.11342
C          1.08121        1.60005        5.53313
C          1.55093       -0.00110        3.75963
C          1.82589       -1.30394        3.34470
C          1.89792       -2.33552        4.27749
C          1.66228       -2.07912        5.62789
C          0.19127        1.19901        9.06448
O         -0.00990        0.52708       10.05042
C         -0.18982        2.62396        8.82662
C         -1.32831        3.08662        9.37337
C         -2.06217        4.16736        8.81919
S         -2.24538        4.42458        7.12477
C         -3.17521        5.85321        7.31410
C         -3.43486        5.97705        8.63799
C         -2.83771        5.06217        9.50554
S         -3.19139        5.26876       11.25981
C         -4.17536        6.63842       10.76185
C         -4.89194        7.41495       11.72519
N         -5.49254        8.05544       12.48737
C         -4.20294        6.90320        9.38670
C         -3.60032        6.62579        6.21180
C         -2.85364        6.75942        5.10525
C         -3.24660        7.52429        3.93712
C         -4.56388        7.62517        3.62656
C         -4.97525        8.20283        2.37351
C         -6.20856        8.32866        1.81080
C         -7.61496        8.12180        2.39324
C         -8.15625        6.66839        2.27008
N         -8.37958        6.22471        0.89073
C         -7.74546        8.60302        3.88054
N         -9.06322        8.38760        4.49333
C         -5.88489        8.61270        0.39889
C         -6.62127        8.54137       -0.71715
C         -5.96050        8.50071       -2.09012
C         -4.51735        8.97961       -2.12815
C         -3.80200        9.15506       -1.00781
C         -4.44773        8.82225        0.23142
C         -3.90977        8.58325        1.42554
C         -2.52825        8.59075        1.82187
C         -2.22233        8.06520        3.01936
C         -6.83613        9.22564       -3.04920
C         -6.78880       10.54018       -3.30311
C         -7.69714       11.11744       -4.20962
S         -9.29942       10.55442       -4.48160
C         -9.60472       11.68739       -5.74269
C         -8.49510       12.46844       -5.85362
C         -7.42606       12.19515       -5.00167
S         -5.95684       13.24437       -5.15625
C         -6.83127       14.04388       -6.43774
C         -6.27811       15.13648       -7.17400
N         -5.86350       16.03041       -7.78533
C         -8.11040       13.54439       -6.69987
C        -10.85039       11.62273       -6.41643
C        -11.14801       12.48926       -7.38792
C        -12.35062       12.44307       -8.16100
C        -12.46139       12.87727       -9.42448
C        -13.66533       12.92087      -10.27168
C        -14.74555       12.10821      -10.18138
C        -15.82635       12.16734      -11.09246
N        -16.73386       12.20994      -11.83083
C        -14.86421       11.08057       -9.19772
N        -14.95761       10.25095       -8.39136
C        -13.37395       13.90051      -11.35727
C        -12.00502       14.20529      -11.33491
C        -11.35183       13.54700      -10.19928
O        -10.16225       13.58982       -9.95930
C        -11.39256       15.07278      -12.22528
C        -12.19445       15.69825      -13.18443
C        -13.59378       15.43623      -13.21508
C        -14.17244       14.53923      -12.29382
C        -14.38684       16.08507      -14.17131
C        -13.81887       16.97241      -15.08607
C        -12.45022       17.22371      -15.05640
C        -11.64131       16.59257      -14.11080
H          0.99661       -1.34039        8.14062
H          1.05899        2.40487        4.80280
H          1.50389        0.78859        3.01187
H          1.98751       -1.51276        2.29028
H          2.12804       -3.34662        3.95217
H          1.71277       -2.90218        6.33772
H         -1.80293        2.52534       10.17852
H         -4.76327        7.72793        8.95764
H         -4.55444        7.13476        6.30559
H         -1.87984        6.28085        5.01448
H         -5.31644        7.13696        4.22681
H         -8.29675        8.77470        1.82802
H         -9.12682        6.58884        2.77563
H         -7.48561        5.96187        2.77061
H         -8.89435        6.94434        0.38784
H         -8.98803        5.40645        0.90156
H         -7.51023        9.67141        3.94383
H         -7.04215        8.08222        4.52834
H         -9.77377        8.93169        4.00763
H         -9.05284        8.72326        5.45733
H         -7.69066        8.38745       -0.68517
H         -5.93599        7.44972       -2.41390
H         -4.04939        9.14346       -3.09578
H         -2.77055        9.48494       -1.02872
H         -1.76809        8.98164        1.15706
H         -1.18182        8.01540        3.32753
H         -7.58990        8.58888       -3.50736
H         -6.03934       11.16706       -2.82484
H         -8.70378       13.97432       -7.49401
H        -11.54431       10.82202       -6.16518
H        -10.47403       13.28219       -7.65752
H        -13.19386       12.04801       -7.60638
H        -10.32480       15.26620      -12.15445
H        -15.24602       14.38449      -12.32809
H        -15.45908       15.90325      -14.21708
H        -14.44693       17.46659      -15.82328
H        -12.00997       17.91315      -15.77261
H        -10.57424       16.80648      -14.10541
