122

C         -3.83009        9.90304       -6.99866
C         -2.93942       10.36318       -6.08255
C         -2.56180       11.72153       -6.01991
N         -2.28241       12.85309       -5.96987
C         -2.18983        9.46163       -5.24528
N         -1.51491        8.76969       -4.60860
C         -4.17789       10.62333       -8.25210
C         -4.20306        9.66832       -9.28619
C         -4.35640       10.01334      -10.61516
C         -4.59267       11.36270      -10.91867
C         -4.71041       12.32051       -9.86684
C         -4.48092       11.94412       -8.53165
C         -5.05979       13.64055      -10.18171
C         -5.24523       14.03252      -11.50805
C         -5.06824       13.11361      -12.53846
C         -4.74981       11.78592      -12.24685
C         -4.17445        8.30180       -8.70870
O         -4.19043        7.24915       -9.30726
C         -4.23613        8.52580       -7.22504
C         -4.95699        7.69803       -6.45488
C         -5.47139        8.08740       -5.18208
S         -4.62238        7.65354       -3.76393
C         -5.79578        8.34688       -2.73283
C         -6.84509        8.88068       -3.44835
C         -6.64521        8.76486       -4.86670
O         -7.46747        9.17721       -5.87563
C         -8.44324       10.16419       -5.50930
S         -9.58710        9.62497       -4.22343
S         -8.24784        9.63813       -2.68273
C         -5.57001        8.28786       -1.33924
C         -5.93884        7.19560       -0.65149
C         -5.64390        6.98713        0.75686
C         -5.58247        8.05558        1.58773
C         -5.16937        7.89817        2.95753
C         -4.89529        8.82207        3.91719
C         -5.06085       10.33989        3.93260
C         -3.77435       11.07870        3.48342
N         -3.35779       10.77186        2.11225
C         -6.30504       10.85640        3.15203
N         -6.51694       12.30564        3.21704
C         -4.25693        8.03239        4.97970
C         -3.55886        8.40068        6.06439
C         -2.79635        7.37885        6.90816
C         -3.04910        5.92440        6.53093
C         -3.77852        5.56133        5.46600
C         -4.30199        6.61008        4.64209
C         -4.83350        6.53850        3.42018
C         -5.02294        5.40194        2.55982
C         -5.41183        5.62770        1.28959
C         -3.16086        7.55931        8.34062
C         -2.30535        7.82785        9.33766
C         -2.74474        7.95632       10.69014
S         -1.57445        8.32087       11.89843
C         -2.73439        8.31114       13.16112
C         -3.99328        8.01215       12.68205
C         -4.00587        7.83525       11.26436
O         -5.06117        7.50573       10.46975
C         -6.36297        7.77130       10.97243
S         -6.72107        6.87378       12.49117
S         -5.43239        7.90278       13.70316
C         -2.30110        8.57541       14.48585
C         -2.25083        9.84236       14.91970
C         -1.77774       10.18833       16.24086
C         -1.21464       11.35617       16.58891
C         -0.58683       11.75038       17.87241
C         -0.92364       11.31658       19.11315
C         -0.31911       11.83028       20.29369
N          0.16810       12.24415       21.26771
C         -1.95710       10.34129       19.33188
N         -2.79106        9.56189       19.53806
C          0.36738       12.85095       17.54881
C          0.12831       13.27743       16.23671
C         -0.88821       12.43953       15.59525
O         -1.32213       12.61789       14.47643
C          0.81689       14.31102       15.62085
C          1.82713       14.94878       16.34317
C          2.12715       14.51525       17.66531
C          1.39397       13.46225       18.25554
C          3.16344       15.14875       18.36524
C          3.88649       16.19209       17.78377
C          3.58421       16.61844       16.49374
C          2.56122       16.00009       15.77574
H         -4.33044        9.24813      -11.38503
H         -4.55540       12.68251       -7.73825
H         -5.19674       14.38017       -9.39501
H         -5.52018       15.05955      -11.73619
H         -5.18847       13.42850      -13.57212
H         -4.62838       11.08405      -13.06972
H         -5.32085        6.75361       -6.85977
H         -9.03228       10.37523       -6.40614
H         -7.94275       11.10184       -5.23540
H         -5.05293        9.12593       -0.87892
H         -6.42266        6.36362       -1.15868
H         -5.71959        9.05031        1.20256
H         -5.24229       10.62728        4.97945
H         -2.94910       10.84317        4.16489
H         -3.92443       12.16252        3.56150
H         -3.09427        9.78773        2.06161
H         -2.51986       11.30706        1.89194
H         -7.20543       10.35242        3.52346
H         -6.22693       10.63863        2.09007
H         -6.59662       12.61933        4.17849
H         -7.38771       12.53564        2.74006
H         -3.45178        9.44604        6.33334
H         -1.72621        7.56998        6.76617
H         -2.61032        5.15248        7.15793
H         -3.94549        4.52190        5.20980
H         -4.81346        4.40160        2.91360
H         -5.51289        4.79727        0.60063
H         -4.22155        7.42370        8.50955
H         -1.24555        7.94109        9.11551
H         -7.05793        7.42650       10.19986
H         -6.52249        8.85173       11.07305
H         -1.99203        7.73616       15.10093
H         -2.55382       10.64932       14.25366
H         -1.86501        9.37583       16.95735
H          0.57711       14.59076       14.59823
H          1.66924       13.14320       19.25554
H          3.41939       14.83633       19.37596
H          4.68690       16.67239       18.34104
H          4.14760       17.43226       16.04390
H          2.34400       16.34584       14.76676
