128

C         -1.81660        2.31314       -5.74276
C         -3.13817        2.02746       -5.69641
C         -3.61787        0.70122       -5.49293
N         -3.98420       -0.38666       -5.32133
C         -4.10917        2.99714       -6.08921
N         -4.89009        3.75320       -6.49608
C         -0.75844        1.30552       -5.94397
C          0.12140        1.81584       -6.91324
C          1.13241        1.05334       -7.46779
C          1.32362       -0.24544       -6.96685
C          0.52895       -0.71351       -5.87689
C         -0.52664        0.06609       -5.37947
C          0.80307       -1.96537       -5.31232
C          1.80262       -2.77955       -5.84218
C          2.53177       -2.35668       -6.95018
C          2.30191       -1.09490       -7.50373
C         -0.15347        3.26053       -7.12748
O          0.42888        4.01614       -7.87451
C         -1.23022        3.58871       -6.13098
C         -1.28484        4.79374       -5.54597
C         -1.90827        5.10886       -4.26260
C         -2.87620        6.05743       -4.20423
C         -3.44636        6.56887       -2.94781
C         -1.47395        4.57087       -2.96930
C         -0.52831        3.65815       -2.67458
C         -0.41777        3.49007       -1.17813
C         -0.69068        2.06015       -0.72713
C         -1.45288        4.46172       -0.68058
C         -2.04588        5.07744       -1.71720
C         -3.06031        6.13988       -1.72096
C         -3.50519        6.80923       -0.48238
C         -3.11446        8.09865       -0.25988
C         -2.90642        8.51344        1.12120
C         -2.25373        9.60046        1.61192
C         -1.95956       10.93521        0.95299
C         -2.57822       12.12027        1.75382
N         -4.04032       12.04628        1.87902
C         -0.45596       11.17178        0.67115
N         -0.17394       12.44162       -0.00594
C         -1.75453        9.12626        2.90625
C         -0.70956        9.53064        3.63949
C         -0.17633        8.70990        4.80154
C         -1.05242        7.53446        5.20253
C         -2.11509        7.14138        4.47887
C         -2.37986        7.85570        3.25984
C         -3.09085        7.50192        2.18564
C         -3.87952        6.32999        1.92264
C         -4.09246        6.02007        0.63049
C          0.11937        9.57178        5.98609
C         -0.54465       10.68944        6.32384
C         -0.17157       11.54021        7.43326
C          0.36796       10.99602        8.54960
C          0.78369       11.77613        9.70160
C         -0.41362       12.97888        7.48189
C         -0.93679       13.80526        6.55870
C         -0.96518       15.21300        7.09769
C         -0.11403       16.15867        6.25958
C         -0.39238       15.03730        8.48260
C         -0.06037       13.75253        8.67303
C          0.55075       13.10374        9.82438
C          0.97841       13.78940       11.02972
C          0.59284       13.50448       12.28347
C          0.94495       14.18052       13.55073
C          2.09188       14.85080       13.82334
C          2.38104       15.37827       15.11042
N          2.61834       15.81757       16.16278
C          3.13618       15.03579       12.86970
N          3.98511       15.18724       12.09323
C         -0.12558       13.81699       14.52999
C         -0.90428       12.79510       13.97486
C         -0.48108       12.50005       12.60911
O         -0.96971       11.61967       11.93413
C         -1.98048       12.19695       14.60742
C         -2.33675       12.66702       15.86801
C         -1.59674       13.73040       16.45767
C         -0.48989       14.29556       15.78085
C         -1.99927       14.20748       17.71300
C         -3.09947       13.65206       18.37135
C         -3.81012       12.60470       17.79121
C         -3.42954       12.11197       16.54535
H          1.76501        1.46674       -8.24809
H         -1.14501       -0.30435       -4.56632
H          0.23765       -2.32127       -4.45305
H          2.00242       -3.75026       -5.39522
H          3.28830       -3.00861       -7.37990
H          2.89272       -0.78499       -8.36337
H         -0.67400        5.60292       -5.94953
H         -3.23687        6.54051       -5.10951
H         -4.16089        7.38101       -3.04538
H          0.10801        3.13979       -3.37412
H          0.57618        3.80279       -0.83695
H         -1.67416        1.70529       -1.05616
H         -0.65675        1.98153        0.36580
H          0.06347        1.37630       -1.13277
H         -1.63514        4.65053        0.36742
H         -2.62020        8.68275       -1.02881
H         -2.45929       10.93710       -0.02663
H         -2.35087       13.06919        1.25493
H         -2.14466       12.17883        2.75871
H         -4.45803       11.95527        0.95446
H         -4.38748       12.92364        2.26471
H         -0.06249       10.35232        0.05985
H          0.12372       11.19129        1.59266
H         -0.57960       12.43805       -0.93980
H          0.83432       12.53778       -0.12855
H         -0.13518       10.41095        3.39107
H          0.78557        8.29630        4.46467
H         -0.77821        6.98016        6.09562
H         -2.71599        6.28585        4.75985
H         -4.27953        5.74137        2.73842
H         -4.66651        5.13810        0.36430
H          0.97600        9.24421        6.57043
H         -1.39355       11.02423        5.73083
H          0.51110        9.92440        8.65135
H          1.25765       11.20559       10.49552
H         -1.29066       13.52434        5.57803
H         -1.99740       15.57584        7.15690
H          0.91557       15.79510        6.15477
H         -0.06969       17.15263        6.71822
H         -0.53085       16.26961        5.25274
H         -0.26808       15.84065        9.19131
H          1.64661       14.61587       10.80686
H         -2.53460       11.40590       14.10784
H          0.03646       15.11879       16.25274
H         -1.46297       15.02521       18.19040
H         -3.40379       14.04040       19.34002
H         -4.66577       12.17398       18.30499
H         -3.99822       11.29509       16.10459
