109

C          1.61025       -7.32883       11.69401
C          2.73449       -7.36139       12.51198
C          2.91694       -8.44142       13.40946
C          4.08203       -8.44082       14.24672
N          5.02975       -8.42634       14.91344
C          1.98182       -9.49509       13.47421
C          2.14992      -10.60793       14.36602
N          2.26216      -11.51973       15.07307
C          0.86233       -9.47495       12.64148
C          0.71172       -8.39732       11.77904
C         -0.37329       -8.24207       10.80921
O         -1.36627       -8.93609       10.80972
C          0.01555       -7.08657        9.92788
C          1.10680       -6.37708       10.65427
C          1.45674       -5.07368       10.53327
C          2.43105       -4.46118       11.37137
N          3.22658       -3.97902       12.06531
C          0.83040       -4.18456        9.61066
N          0.32612       -3.46250        8.85521
C         -0.44612       -6.86052        8.68251
C         -1.44234       -7.60633        7.88504
C         -2.23061       -6.89074        6.95919
C         -3.15689       -7.60014        6.16974
C         -3.27224       -8.98585        6.25429
C         -2.47253       -9.69069        7.16282
C         -1.55575       -8.99553        7.94736
C         -4.25150       -9.40637        5.31961
C         -4.77777       -8.26549        4.72247
N         -4.08894       -7.18284        5.23648
C         -4.32136       -5.79949        4.87756
C         -5.82722       -8.35299        3.79539
C         -6.33390       -9.62390        3.44645
C         -5.76397      -10.76698        4.01470
C         -4.73774      -10.67255        4.95280
C         -7.45237       -9.75701        2.49923
C         -8.45140      -10.70400        2.40783
C         -9.36401      -10.46161        1.31090
N        -10.45970      -11.23865        1.06593
C        -10.57633      -12.25950        1.97194
C        -11.79805      -13.09061        1.84432
O        -12.67044      -12.86777        1.01402
C        -11.97185      -14.21674        2.78402
C        -11.05628      -14.51230        3.70678
C         -9.82315      -13.71821        3.85474
O         -8.97809      -14.07294        4.66712
C         -9.66125      -12.52360        2.99275
N         -8.56944      -11.75481        3.26809
C         -8.97335       -9.39505        0.52376
S         -7.63606       -8.59650        1.25410
C         -9.49561       -8.86599       -0.74981
C         -8.63137       -8.21200       -1.65653
C         -9.13972       -7.73516       -2.87267
C        -10.47625       -7.89987       -3.21438
C        -11.33841       -8.55222       -2.31321
C        -10.84026       -9.02446       -1.09386
C        -10.65787       -7.31978       -4.49994
C         -9.42421       -6.83076       -4.93493
N         -8.52550       -7.06487       -3.91342
C         -7.13746       -6.65228       -3.89067
C         -9.27312       -6.23311       -6.20011
C        -10.40157       -6.12485       -7.02935
C        -11.65175       -6.53711       -6.55687
C        -11.78622       -7.16811       -5.32173
C        -10.25733       -5.48349       -8.34582
C        -10.94277       -5.74639       -9.46878
C        -10.95864       -4.67929      -10.51855
O        -10.15250       -3.79564      -10.71291
C        -12.24111       -4.85444      -11.22104
C        -12.77939       -3.98243      -12.15502
C        -14.05686       -4.26249      -12.64444
C        -14.76827       -5.38851      -12.17907
C        -14.19304       -6.25536      -11.22233
C        -12.90964       -6.00086      -10.75653
C        -11.99867       -6.70982       -9.81292
C        -12.01504       -8.03610       -9.52885
C        -10.91013       -8.69737       -8.91183
N        -10.00676       -9.27116       -8.46456
C        -13.09421       -8.88497       -9.90261
N        -14.00242       -9.54492      -10.19858
C        -16.09020       -5.68544      -12.65567
N        -17.15797       -5.93957      -13.02757
C        -14.62271       -3.37547      -13.62309
N        -15.06197       -2.65091      -14.41021
H          3.49599       -6.58633       12.47950
H          0.12893      -10.27928       12.64548
H         -0.03839       -6.03852        8.09950
H         -2.13500       -5.81307        6.85728
H         -2.56951      -10.76741        7.26203
H         -0.94220       -9.59142        8.61320
H         -5.29113       -5.69147        4.38731
H         -3.52408       -5.48238        4.20055
H         -4.32164       -5.19185        5.78582
H         -6.24917       -7.44766        3.37277
H         -6.11478      -11.76277        3.75178
H         -4.32727      -11.57261        5.40089
H        -12.88354      -14.79477        2.67822
H        -11.17372      -15.34828        4.38835
H         -7.57588       -8.08442       -1.43866
H        -12.38516       -8.70024       -2.56152
H        -11.53519       -9.52564       -0.42339
H         -6.83107       -6.27476       -4.86702
H         -6.51780       -7.51412       -3.62902
H         -7.02991       -5.86348       -3.14025
H         -8.30473       -5.87053       -6.53199
H        -12.55627       -6.38135       -7.13548
H        -12.75565       -7.52643       -4.98904
H         -9.56850       -4.63562       -8.34074
H        -12.21850       -3.10540      -12.47326
H        -14.78035       -7.09834      -10.86613
