88

C         -2.64573       -0.13085       -1.62662
S         -2.67855       -1.82077       -1.52671
C         -0.95702       -1.94590       -1.28627
C         -0.37860       -0.67364       -1.29749
C         -1.37595        0.35862       -1.46701
C          1.04537       -0.32358       -1.12649
O          1.32926        0.70820       -0.50728
C          2.13096       -1.18296       -1.77091
F          1.83604       -1.53204       -3.05315
F          3.33552       -0.54156       -1.82865
F          2.37050       -2.34072       -1.09434
C         -0.38219       -3.23926       -1.04401
C         -0.86858       -4.35282       -1.61283
C         -0.26974       -5.62473       -1.43386
S         -0.57896       -6.62243       -0.07776
C          0.50735       -6.32158       -2.30289
C          1.14539       -6.02406       -3.55963
O          1.22584       -4.92772       -4.09549
N          1.64945       -7.22546       -3.98701
C          2.49125       -7.39597       -5.15624
C          2.02782       -8.47589       -6.12239
C          1.21279       -8.27327       -3.20120
O          1.14953       -9.43008       -3.56673
C          0.64757       -7.69538       -1.99994
C          0.27509       -8.05366       -0.70536
C          0.46322       -9.20946        0.15342
N          1.22001      -10.36311       -0.15463
C          1.80289      -10.83365       -1.37287
C          0.78886      -11.65415       -2.16686
C          1.23676      -11.29217        0.88522
O          1.73041      -12.40139        0.88080
C          0.49012      -10.63139        1.93935
C          0.01304       -9.35742        1.43125
C         -0.76155       -8.77113        2.56755
O         -1.38205       -7.72824        2.60391
N         -0.63442       -9.72931        3.60381
C         -1.27079       -9.54834        4.89717
C         -2.64883      -10.19011        4.96089
C          0.10868      -10.83447        3.20085
C          0.34579      -11.98541        4.04440
C          1.14010      -13.02133        3.73638
C          1.27753      -14.14707        4.56925
S          0.21651      -15.48648        4.36279
C          1.13923      -16.30746        5.56111
N          2.14895      -15.59664        6.02400
N          2.23511      -14.35546        5.44543
C          0.74050      -17.59690        5.97918
C          1.14041      -18.04365        7.17659
C          0.70664      -19.30801        7.62503
S          1.69363      -20.66421        7.43090
C          0.57284      -21.71833        8.22360
C         -0.60866      -21.03394        8.55731
C         -0.48093      -19.63578        8.23546
C         -1.79398      -21.67671        9.18408
O         -1.77459      -22.88272        9.45828
C         -3.06536      -20.86916        9.48813
F         -3.04011      -19.55597        9.13116
F         -4.15766      -21.39007        8.85600
F         -3.36358      -20.87756       10.81959
C          0.92760      -23.09709        8.39666
C          2.19179      -23.53000        8.51662
H         -3.55880        0.42776       -1.78272
H         -1.15042        1.41982       -1.48149
H          0.47884       -3.30958       -0.38473
H         -1.70687       -4.32215       -2.30552
H          3.49254       -7.65817       -4.78867
H          2.57487       -6.43915       -5.68085
H          2.14219       -9.47665       -5.69312
H          2.63359       -8.45825       -7.03167
H          0.97631       -8.33909       -6.39082
H          2.63356      -11.51263       -1.13360
H          2.30999      -10.01714       -1.87505
H          0.49068      -12.55062       -1.61233
H          1.21258      -11.98068       -3.12055
H         -0.13102      -11.08949       -2.35621
H         -1.37185       -8.47453        5.09156
H         -0.62164       -9.94851        5.68335
H         -3.33355       -9.71630        4.25050
H         -3.07135      -10.08299        5.96537
H         -2.60816      -11.25797        4.72285
H         -0.17619      -12.01564        4.99827
H          1.72873      -13.08856        2.84076
H          0.09957      -18.19315        5.33486
H          1.77708      -17.45070        7.83114
H         -1.21619      -18.86511        8.42719
H          0.13198      -23.83475        8.46132
H          3.05602      -22.87328        8.49122
H          2.39722      -24.58619        8.65582
