72

C         -0.00332        0.57686        0.00332
C         -1.30221        1.01059        0.00684
S         -2.38495       -0.34277        0.00643
C         -1.09823       -1.46136        0.00187
Cl        -1.43561       -3.14066       -0.00103
C          0.11119       -0.83477        0.00085
C          1.47609       -1.28491       -0.00263
O          1.87732       -2.43057       -0.00478
C          2.26367        0.03284       -0.00411
C          1.30634        1.16740        0.00202
C          1.64385        2.46869        0.00770
C          0.56396        3.53836        0.01359
N         -0.33190        4.42574        0.01848
C          3.11018        2.86907        0.00817
N          4.32661        3.20121        0.00856
C          3.60405        0.09293       -0.01289
C          4.42129       -1.18867       -0.01801
C          5.12231       -2.28802       -0.02241
C          5.93955       -3.56962       -0.02753
C          6.64058       -4.66898       -0.03193
C          7.45782       -5.95058       -0.03706
N          6.91580       -7.22755       -0.02016
C          5.50106       -7.53668       -0.00081
C          4.90488       -7.65256       -1.39479
C          7.92582       -8.21020       -0.02967
O          7.83610       -9.42044       -0.02265
C          9.16792       -7.40835       -0.04043
C          8.78909       -6.01835       -0.04452
C         10.01854       -5.21340       -0.06191
O         10.10309       -4.00288       -0.08440
N         11.03543       -6.19749       -0.07799
C         12.43547       -5.82863       -0.16943
C         13.08934       -5.57345        1.17980
C         10.50159       -7.49303       -0.05365
C         11.30340       -8.69294       -0.04514
C         11.21790       -9.60172        0.93883
C         12.05698      -10.74525        1.06929
C         12.71393      -11.69300        1.40883
C         13.50366      -12.84280        2.06396
C         14.11936      -13.66477        2.68999
C         14.89371      -14.63689        3.38289
C         14.96756      -14.84975        4.70710
C         15.72140      -16.12350        5.09321
O         16.42390      -16.82531        4.39180
C         15.35586      -16.30679        6.46752
C         15.64529      -17.24435        7.41227
S         14.89465      -16.88967        8.90014
C         14.17834      -15.44230        8.27212
C         14.51828      -15.27122        6.95482
C         14.32799      -14.26332        5.92924
C         13.84318      -13.01750        6.13894
C         13.21505      -12.64555        7.36300
N         12.68910      -12.35194        8.35616
C         14.02037      -11.94363        5.22335
N         14.20107      -11.01837        4.55383
Cl        16.62990      -18.63880        7.27221
H         -1.72112        2.00793        0.00961
H          4.26905        0.93036       -0.01941
H          4.97185       -6.77179        0.57737
H          5.36708       -8.49009        0.52224
H          5.00760       -6.71658       -1.95331
H          3.83849       -7.89253       -1.32885
H          5.39667       -8.44291       -1.97101
H         12.49775       -4.90461       -0.75753
H         12.98408       -6.59584       -0.72376
H         12.55150       -4.80698        1.74723
H         14.11915       -5.22562        1.03778
H         13.11961       -6.48456        1.78440
H         12.00994       -8.81888       -0.86136
H         10.50885       -9.45680        1.75012
H         15.45003      -15.30149        2.71904
H         13.58210      -14.83578        8.94045
