87

C         -0.22744        0.30128        0.98917
C         -1.46392        0.57071        1.51420
S         -1.30364        1.31885        3.06759
C          0.39966        1.25230        3.00182
Cl         1.31694        1.84713        4.32037
C          0.83795        0.67881        1.84595
C          2.13281        0.35443        1.30787
O          3.22383        0.64775        1.75198
C          1.77568       -0.42514        0.03982
C          0.29676       -0.28145       -0.22151
C         -0.38461       -0.53593       -1.36383
C         -1.78813       -0.32014       -1.46954
N         -2.93216       -0.14994       -1.55038
C          0.24433       -0.99216       -2.55552
N          0.76715       -1.36771       -3.51998
C          2.63587       -1.24407       -0.59122
C          3.98272       -1.46985       -0.20507
C          5.13615       -0.85268       -0.63409
C          6.31043       -1.46996       -0.10461
C          6.05210       -2.53968        0.74422
S          4.35086       -2.79291        0.80960
C          6.97953       -3.38081        1.43031
N          6.85244       -3.94467        2.71033
C          5.73886       -3.84402        3.63034
C          4.75272       -4.99843        3.49197
C          8.00457       -4.67856        3.07132
O          8.25389       -5.29075        4.08998
C          8.87405       -4.52040        1.89924
C          8.17209       -3.72881        0.92671
C          9.04438       -3.61977       -0.25980
O          8.77531       -3.06439       -1.30476
N         10.20762       -4.32361        0.12694
C         11.33329       -4.59233       -0.75892
C         11.66122       -3.46988       -1.73209
C         10.06589       -4.86054        1.40898
C         11.06116       -5.68259        2.03713
C         11.64862       -5.38131        3.20736
C         12.60911       -6.26515        3.88140
C         13.66114       -5.72936        4.62940
C         14.54093       -6.59013        5.31559
N         15.63191       -5.96664        6.04271
O         16.42034       -5.27257        5.38724
O         15.69708       -6.16529        7.26312
C         14.40245       -7.98957        5.28302
C         13.31512       -8.49479        4.55412
C         12.44048       -7.65270        3.86350
C         15.26824       -8.94927        5.99985
C         15.56169      -10.16575        5.50834
C         16.30558      -11.17349        6.22183
C         17.55634      -11.09343        6.69598
C         17.95915      -12.14474        7.71032
O         17.46386      -13.23983        7.90406
C         19.00947      -11.48277        8.43126
C         19.74067      -11.76986        9.54195
S         20.80734      -10.49788        9.93460
C         20.29320       -9.54616        8.57994
C         19.34217      -10.22248        7.86572
C         18.57437      -10.01262        6.66297
C         18.86449       -9.17011        5.64573
C         19.91264       -8.21875        5.74545
N         20.77643       -7.44760        5.83603
C         18.23728       -9.24967        4.36750
N         17.75788       -9.32172        3.31188
Cl        19.68478      -13.16943       10.52709
H         -2.45691        0.39055        1.12397
H          2.31875       -1.87636       -1.41206
H          5.15234       -0.01697       -1.32346
H          7.31114       -1.13725       -0.35739
H          5.24898       -2.87193        3.52838
H          6.14283       -3.87620        4.64968
H          4.28048       -5.02769        2.50744
H          3.95850       -4.90815        4.23962
H          5.24897       -5.96385        3.63277
H         11.10818       -5.51063       -1.31287
H         12.22608       -4.77601       -0.15058
H         10.89664       -3.38254       -2.50978
H         12.61094       -3.67191       -2.23715
H         11.74062       -2.50794       -1.21613
H         11.31929       -6.59269        1.49986
H         11.41217       -4.45273        3.72300
H         13.80198       -4.65051        4.68102
H         13.11212       -9.56359        4.51888
H         11.60789       -8.10739        3.33037
H         15.62217       -8.65135        6.98520
H         15.18788      -10.49004        4.53775
H         15.72249      -12.07719        6.41494
H         20.73426       -8.57035        8.42363
