81

C          3.97253        2.44560        1.96045
C          3.75023        3.77572        2.20104
S          2.53912        4.38773        1.12235
C          2.34353        2.87158        0.36950
Cl         1.24457        2.70346       -0.93339
C          3.15988        1.93077        0.91915
C          3.39613        0.54071        0.65945
O          2.75676       -0.21199       -0.04693
C          4.59916        0.23776        1.55249
C          4.83227        1.40576        2.47852
C          5.60766        1.46512        3.58391
C          5.70048        2.64971        4.37962
N          5.77173        3.61065        5.02052
C          6.36404        0.36200        4.06382
N          6.98057       -0.54597        4.43880
C          5.36944       -0.84530        1.35014
C          5.16521       -1.76778        0.28651
N          5.79785       -1.71021       -0.87123
C          5.46954       -2.80951       -1.60459
C          4.60544       -3.70078       -1.04988
S          4.13180       -3.15126        0.52288
N          4.33355       -4.83431       -1.74877
C          5.03805       -4.84998       -2.87230
S          5.99999       -3.40484       -3.13760
C          5.09679       -5.94746       -3.78346
N          4.98385       -7.29866       -3.40834
C          4.86716       -7.83977       -2.06598
C          3.58054       -8.63155       -1.86484
C          5.06005       -8.14993       -4.52276
O          5.02845       -9.36226       -4.58158
C          5.17603       -7.20998       -5.64588
C          5.22134       -5.87163       -5.11530
C          5.34622       -4.95898       -6.27106
O          5.40463       -3.74756       -6.25425
N          5.35843       -5.83704       -7.37539
C          5.39513       -5.34706       -8.74026
C          4.00346       -5.07007       -9.28517
C          5.21994       -7.16467       -6.97876
C          5.16574       -8.26607       -7.89923
C          4.46746       -9.38624       -7.66383
C          4.48640      -10.47099       -8.57158
S          3.58081      -11.88181       -8.18478
C          4.20694      -12.60456       -9.61604
N          4.98603      -11.80340      -10.31115
N          5.13527      -10.56850       -9.71583
C          3.80833      -13.92932       -9.90565
C          4.50360      -14.72744      -10.72848
C          4.08638      -16.07920      -11.04151
C          2.83583      -16.52404      -11.26072
C          2.62608      -18.02684      -11.15013
O          3.43904      -18.91537      -11.29698
C          1.24814      -18.10240      -10.74219
C          0.41503      -19.11278      -10.37262
S         -1.13005      -18.52946       -9.94483
C         -0.68825      -16.88777      -10.28249
C          0.60771      -16.83447      -10.71884
C          1.50981      -15.83722      -11.23260
C          1.17030      -14.64663      -11.77676
C         -0.13213      -14.09105      -11.62431
N         -1.18516      -13.63850      -11.45981
C          2.06228      -13.91527      -12.60899
N          2.77344      -13.32518      -13.31344
Cl         0.74229      -20.79171      -10.30382
H          4.20022        4.45530        2.91211
H          6.28666       -1.01678        1.89819
H          4.93458       -7.05729       -1.30978
H          5.72251       -8.50680       -1.90584
H          2.70083       -8.01831       -2.08274
H          3.51080       -8.98835       -0.83270
H          3.54274       -9.51077       -2.51637
H          5.92474       -6.05941       -9.38023
H          5.97445       -4.41702       -8.75493
H          3.38712       -5.97491       -9.28202
H          4.06558       -4.70230      -10.31401
H          3.49008       -4.31400       -8.68216
H          5.72846       -8.17274       -8.82530
H          3.89207       -9.50771       -6.75115
H          2.89109      -14.27357       -9.44131
H          5.46572      -14.40708      -11.13250
H          4.91012      -16.79880      -11.02342
H         -1.42486      -16.10600      -10.14895
