82

C          3.09727        1.31324       -2.03746
N          3.12019        1.87827       -0.76599
C          3.86993        1.37761        0.36675
C          5.20844        0.75909       -0.00302
C          2.22682        2.96539       -0.66346
O          1.94610        3.66110        0.29489
C          1.68341        3.05480       -2.03066
C          2.26734        1.99926       -2.81359
C          1.72837        2.07973       -4.18136
O          2.00073        1.35565       -5.11083
N          0.86314        3.19139       -4.10116
C          0.11426        3.67485       -5.24799
C         -1.39592        3.60140       -5.07261
C          0.86273        3.74725       -2.81975
C          0.09700        4.89562       -2.46015
C         -0.81547        4.88320       -1.47605
C         -1.56278        6.04848       -1.16703
S         -2.20868        6.25293        0.40131
C         -2.87314        7.80224        0.03601
C         -2.59281        8.16486       -1.27743
C         -1.88142        7.12897       -1.96155
C         -2.93546        9.42995       -1.91433
O         -2.73318        9.65594       -3.10465
C         -3.56742        8.46550        1.08874
C         -4.64561        9.22052        0.83977
C         -5.33750        9.91247        1.86546
S         -6.93048       10.44514        1.54928
C         -7.13689       11.09000        3.12928
C         -5.96859       10.97258        3.86993
C         -4.94489       10.29143        3.13256
C         -5.78678       11.46902        5.22556
O         -4.97011       10.99806        6.01059
C         -8.42586       11.61408        3.42692
C         -8.94428       11.56068        4.66205
C        -10.24375       12.05498        4.94910
S        -10.80285       12.03274        6.57392
C        -12.32564       12.67011        6.14553
C        -13.28943       12.89376        7.19935
O        -14.50545       12.94669        7.03128
C        -12.42227       12.89025        4.78536
C        -11.20325       12.60288        4.11809
C        -13.54990       13.49140        4.15157
C        -14.64733       12.88332        3.67395
C        -15.86853       13.77969        3.55436
O        -15.90794       14.97752        3.35160
C        -16.93788       12.85085        3.79692
C        -18.28137       12.96277        3.97801
S        -18.99982       11.44855        4.29720
C        -17.48396       10.61606        4.17143
C        -16.48408       11.50582        3.88738
C        -15.06985       11.45926        3.60754
C        -14.38158       10.40299        3.11769
C        -13.12999       10.54862        2.45649
N        -12.14691       10.64710        1.84533
C        -14.94803        9.09642        3.06671
N        -15.41040        8.03308        3.03167
Cl       -19.24962       14.37458        3.93445
H          3.68827        0.45308       -2.31363
H          3.23887        0.64472        0.88121
H          4.03197        2.20673        1.06544
H          5.08034       -0.11419       -0.65032
H          5.73925        0.42848        0.89374
H          5.83682        1.48273       -0.53294
H          0.38870        3.07516       -6.12354
H          0.43019        4.70358       -5.45364
H         -1.72136        2.57142       -4.89740
H         -1.89803        3.97714       -5.96929
H         -1.74601        4.20562       -4.23246
H          0.29235        5.78869       -3.04645
H         -0.98971        3.98096       -0.89229
H         -1.59118        7.21110       -3.00327
H         -3.38393       10.21018       -1.28241
H         -3.22685        8.29667        2.10888
H         -5.04748        9.30277       -0.16627
H         -3.95441       10.10956        3.53647
H         -6.43177       12.30973        5.52926
H         -9.00621       12.00203        2.59194
H         -8.39482       11.10605        5.48099
H        -12.87134       13.02180        8.21507
H        -11.05138       12.75887        3.05581
H        -13.55159       14.58276        4.19923
H        -17.45719        9.54376        4.31384
