101

C         -6.28948       -2.76295       -0.13151
C         -5.21685       -3.41032       -0.64639
C         -5.04133       -4.81997       -0.53982
N         -4.88701       -5.96558       -0.44266
C         -4.19124       -2.73837       -1.37561
N         -3.34243       -2.20184       -1.95629
C         -7.47656       -3.38415        0.53274
C         -8.50852       -2.44266        0.55586
C         -9.74925       -2.65732        1.14576
C         -9.97428       -3.90578        1.76518
C         -8.95174       -4.86412        1.73747
C         -7.69079       -4.62162        1.13059
S         -9.44160       -6.31722        2.53264
C        -10.96957       -5.67749        2.93188
C        -11.12223       -4.38863        2.47953
C         -8.07067       -1.17142       -0.03715
O         -8.79803       -0.23392       -0.28362
C         -6.59003       -1.31645       -0.24024
C         -5.74429       -0.27210       -0.27046
C         -6.13556        1.14471       -0.17405
C         -6.41777        1.91527       -1.30885
O         -6.34730        1.26712       -2.51602
C         -6.02434        2.06420       -3.64793
C         -6.79986        3.25530       -1.15123
C         -6.91532        3.85518        0.12371
C         -6.61522        3.05926        1.25619
C         -6.21502        1.72556        1.09880
O         -6.83151        3.59466        2.50309
C         -5.95962        3.17508        3.54682
C         -7.31811        5.28816        0.21772
C         -8.15854        6.05375       -0.56970
C         -8.25130        7.44109       -0.13698
N         -9.02220        8.37187       -0.77862
C         -9.68625        7.83693       -1.85403
C        -10.58370        8.77338       -2.57741
O        -10.73939        9.94010       -2.23771
C        -11.32028        8.26447       -3.75229
C        -11.19258        7.00566       -4.17175
C        -10.31328        6.04396       -3.48100
O        -10.20920        4.90884       -3.92864
C         -9.58190        6.50920       -2.27582
N         -8.82045        5.56028       -1.65704
C         -7.47077        7.71867        0.97499
S         -6.59064        6.30302        1.40247
C         -7.21324        8.98473        1.72057
C         -6.94141        9.04855        3.10608
O         -7.00243        7.91164        3.87569
C         -6.05661        7.81408        4.94503
C         -6.68675       10.28454        3.71263
C         -6.54936       11.46561        2.97926
C         -6.86333       11.42846        1.61261
C         -7.18514       10.20019        1.00311
O         -6.78058       12.61471        0.92671
C         -7.56291       12.71600       -0.26052
C         -6.16245       12.70926        3.68541
C         -5.30913       12.83326        4.71834
C         -4.52114       11.86204        5.48895
C         -3.60140       10.99777        5.00196
C         -2.87072       10.08842        5.82937
N         -2.32394        9.32462        6.50562
C         -3.16316       11.08920        3.64174
N         -2.71871       11.22205        2.58945
C         -4.49445       12.35545        6.89053
C         -4.77304       13.72616        6.83947
C         -5.25568       14.11075        5.49539
O         -5.57373       15.22303        5.13155
C         -4.61663       14.57556        7.92301
C         -4.18442       14.00583        9.14306
C         -4.00361       12.61608        9.21865
C         -4.17243       11.76102        8.10245
S         -3.53530       12.13363       10.80848
C         -3.49706       13.74177       11.36806
C         -3.87054       14.63631       10.39361
H        -10.50178       -1.87329        1.15393
H         -6.93587       -5.39757        1.18063
H        -11.68459       -6.27358        3.48287
H        -12.02154       -3.80779        2.64772
H         -4.66696       -0.39746       -0.29829
H         -5.94556        1.39465       -4.51035
H         -5.05338        2.55128       -3.51113
H         -6.80572        2.79425       -3.87697
H         -7.04455        3.84467       -2.02873
H         -5.99966        1.11122        1.96701
H         -6.04611        3.90312        4.36041
H         -4.91177        3.15729        3.22752
H         -6.26902        2.20252        3.94037
H        -11.97079        8.97102       -4.25754
H        -11.72763        6.63075       -5.03862
H         -6.30136        6.92065        5.52515
H         -6.11028        8.65004        5.64797
H         -5.03441        7.71085        4.56393
H         -6.61934       10.34456        4.79097
H         -7.37306       10.16859       -0.06576
H         -7.44444       13.73165       -0.65142
H         -8.62463       12.55788       -0.04400
H         -7.21094       12.03233       -1.03875
H         -6.69968       13.59521        3.34174
H         -4.79739       15.64179        7.82126
H         -4.00871       10.69443        8.21689
H         -3.20682       13.95737       12.38735
H         -3.91057       15.70619       10.56064
