88

C         -2.69223       -0.07269        2.69579
C         -1.91153       -1.12119        2.33100
C         -0.95029       -1.71912        3.18928
N         -0.15412       -2.20846        3.87891
C         -2.00567       -1.73935        1.04929
N         -2.06625       -2.22989       -0.00377
C         -2.73089        0.56946        4.04909
C         -3.84245        1.41081        4.11161
C         -4.16678        2.20118        5.20975
C         -3.31043        2.15345        6.33052
C         -2.20058        1.30005        6.28996
C         -1.89226        0.49939        5.15881
S         -1.29987        1.37971        7.76104
C         -2.33916        2.55529        8.42474
C         -3.36413        2.87912        7.56796
C         -4.58388        1.39688        2.84575
O         -5.64923        1.94868        2.66340
C         -3.75268        0.58694        1.88892
C         -3.92921        0.63392        0.55674
C         -4.96722        1.38746       -0.05890
O         -4.78915        2.70044       -0.42188
C         -5.94027        3.17216       -0.98364
C         -6.86547        2.15117       -1.00827
C         -6.24388        0.99377       -0.46021
C         -6.79007       -0.35547       -0.31513
O         -6.40761       -1.08988        0.60223
C         -7.79049       -0.84514       -1.36591
F         -8.05938        0.05410       -2.35589
F         -7.34167       -1.96422       -2.00472
F         -8.99678       -1.17501       -0.82490
C         -6.09249        4.52048       -1.43317
N         -5.05703        5.42227       -1.34218
C         -5.53110        6.64454       -1.72458
C         -5.16320        8.00645       -1.81114
C         -6.32039        8.66395       -2.19604
N         -7.30495        7.73552       -2.46514
C         -6.82207        6.50495       -2.11231
C         -7.20512        5.15000       -1.97043
C         -6.63257       10.04443       -2.19382
C         -7.48485       10.61609       -3.05622
C         -7.86059       11.98210       -2.88072
O         -7.38792       12.74164       -1.83549
C         -7.93308       13.99496       -1.85652
C         -8.77093       14.05170       -2.95479
C         -8.71822       12.79073       -3.62683
C         -9.41854       12.37310       -4.84466
O         -9.71447       11.18611       -5.01794
C         -9.73482       13.42778       -5.90468
F         -9.29841       14.68282       -5.59968
F         -9.16382       13.12337       -7.10533
F        -11.07217       13.54178       -6.13623
C         -7.61271       15.00395       -0.90858
C         -7.24952       14.74663        0.35610
C         -7.14993       13.52017        1.16143
C         -8.05273       12.51020        1.20589
C         -7.87674       11.34284        2.00060
N         -7.71766       10.38240        2.63244
C         -9.32015       12.61657        0.55370
N        -10.37687       12.73110        0.08905
C         -6.09544       13.77146        2.18747
C         -5.84745       15.14935        2.21835
C         -6.56037       15.83199        1.12245
O         -6.53698       17.01890        0.87380
C         -5.04313       15.76864        3.16712
C         -4.46116       14.95291        4.16438
C         -4.65680       13.56589        4.10146
C         -5.44817       12.94890        3.10023
S         -3.84413       12.76119        5.39475
C         -3.29731       14.22801        6.06577
C         -3.67196       15.31264        5.30877
H         -5.03620        2.85277        5.18630
H         -1.00231       -0.11644        5.19859
H         -2.15084        2.95546        9.41186
H         -4.12472        3.61212        7.80997
H         -3.27120        0.13108       -0.13945
H         -7.87536        2.24468       -1.38475
H         -4.12421        5.25314       -0.98977
H         -4.21903        8.45916       -1.54323
H         -8.26171        7.89821       -2.75509
H         -8.16995        4.70826       -2.17487
H         -6.16059       10.63560       -1.41257
H         -7.92604       10.04611       -3.86783
H         -9.36965       14.91361       -3.22233
H         -7.57515       16.02694       -1.28085
H         -4.90247       16.84603        3.16057
H         -5.55439       11.86999        3.10856
H         -2.72175       14.22673        6.98151
H         -3.41180       16.33105        5.57189
