130

C         -2.06447        5.43829       13.25538
C         -1.51840        6.59828       13.68773
C         -0.81463        6.69565       14.92126
N         -0.25455        6.76766       15.93452
C         -1.69921        7.81989       12.97671
N         -1.86339        8.79112       12.36337
C         -2.04887        4.12044       13.95856
C         -3.12575        3.36647       13.48470
C         -3.38252        2.05136       13.84313
C         -2.45745        1.42362       14.70243
C         -1.37341        2.17013       15.19451
C         -1.15546        3.53055       14.84500
S         -0.37616        1.19812       16.22081
C         -1.32322       -0.17396       15.95460
C         -2.40287        0.05912       15.14725
Br        -0.92868       -1.85474       16.68119
C         -3.84606        4.09757       12.43778
O         -4.91981        3.78860       11.96844
C         -2.96615        5.26449       12.09835
C         -2.93000        5.82025       10.87452
C         -3.68836        5.37500        9.72251
C         -3.61257        4.09410        9.27817
C         -4.33343        3.94395        8.03878
C         -4.54060        2.71990        7.35979
N         -4.71290        1.72169        6.79425
C         -4.78840        5.14251        7.65053
C         -4.42273        6.12982        8.67252
C         -4.73478        7.44517        8.64109
C         -5.27384        8.22130        7.50275
C         -5.38145        9.49966        7.91245
C         -4.96675        9.60979        9.29039
C         -4.57316        8.40613        9.73863
C         -5.03327       10.82788       10.00580
N         -5.12404       11.85424       10.53956
C         -5.60583        7.88457        6.14911
C         -6.68260        7.16581        5.82940
C         -7.03028        6.82207        4.47084
C         -8.25050        7.22264        4.05189
C         -8.80805        6.69945        2.82776
C        -10.06374        6.74927        2.29680
C        -11.35958        7.46414        2.72418
C        -12.57601        6.51113        2.91530
N        -13.82800        7.19877        3.26066
C        -11.25437        8.42566        3.94719
N        -11.19495        7.76268        5.25892
C         -9.95508        5.88542        1.10148
C        -10.87310        5.40878        0.25002
C        -10.54185        4.40353       -0.83817
C         -9.06234        4.09837       -0.99277
C         -8.13279        4.59080       -0.15919
C         -8.58141        5.42133        0.92508
C         -7.90695        5.88262        1.97947
C         -6.54135        5.63237        2.36795
C         -6.14595        6.05304        3.58179
C        -11.09659        4.93254       -2.12145
C        -12.24355        4.50408       -2.66914
C        -12.82364        5.08527       -3.85247
C        -14.16065        5.25720       -3.94018
C        -14.47875        6.03488       -5.11593
C        -15.80087        6.30908       -5.52758
N        -16.89787        6.49870       -5.85709
C        -13.34688        6.38748       -5.75281
C        -12.23410        5.74150       -5.05217
C        -10.95094        5.67817       -5.47266
C        -10.21641        6.52022       -6.45320
C         -8.96587        5.99878       -6.50325
C         -8.84643        4.85135       -5.63709
C        -10.01313        4.65049       -5.02361
C         -7.67808        4.07313       -5.48802
N         -6.71626        3.43766       -5.36668
C        -10.58002        7.76296       -7.11969
C         -9.74895        8.50298       -7.87615
C        -10.12941        9.72956       -8.53923
C         -9.33748       10.51697       -9.28062
C         -7.91606       10.50456       -9.65083
C         -6.84753       10.35616       -8.82995
C         -5.51028       10.60382       -9.25777
N         -4.42728       10.81767       -9.61462
C         -6.98321       10.08664       -7.44218
N         -7.08017        9.85772       -6.30515
C         -7.83513       11.10643      -11.00837
C         -9.01307       11.82222      -11.23249
C         -9.99273       11.54171      -10.16482
O        -11.11174       12.00029      -10.07441
C         -9.21517       12.62806      -12.34350
C         -8.17429       12.69872      -13.29999
C         -7.03293       11.89995      -13.12088
C         -6.85184       11.07368      -11.98793
S         -5.92560       12.08731      -14.43298
C         -6.89704       13.25533      -15.16599
C         -8.06653       13.49125      -14.49393
Br        -6.41699       14.13899      -16.74584
H         -4.22267        1.51184       13.41407
H         -0.27536        4.03909       15.22540
H         -3.11806       -0.70180       14.85679
H         -2.21336        6.60183       10.63133
H         -3.07198        3.27783        9.73607
H         -5.38973        5.28872        6.77541
H         -5.72160       10.33382        7.31432
H         -4.26207        8.18731       10.74599
H         -4.97768        8.30998        5.36985
H         -7.34606        6.77218        6.60068
H         -8.81943        7.88470        4.67980
H        -11.60671        8.12300        1.87636
H        -12.35567        5.74199        3.66351
H        -12.79869        5.98189        1.99363
H        -13.87489        7.25217        4.28248
H        -14.62319        6.62823        2.97956
H        -12.13275        9.08196        3.97192
H        -10.40337        9.10454        3.81868
H        -10.54932        6.97496        5.22874
H        -10.83572        8.41991        5.95067
H        -11.91351        5.69225        0.30556
H        -11.03350        3.45604       -0.57759
H         -8.75369        3.44177       -1.80187
H         -7.07940        4.36856       -0.28382
H         -5.87534        5.08472        1.71243
H         -5.13650        5.84385        3.92237
H        -10.53405        5.74940       -2.57006
H        -12.83401        3.75172       -2.14670
H        -14.89418        4.95738       -3.20372
H        -13.30314        6.90792       -6.69424
H         -8.11574        6.36956       -7.05467
H        -10.23297        3.81937       -4.36314
H        -11.58686        8.12592       -6.95208
H         -8.73335        8.16420       -8.03413
H        -11.19356        9.97196       -8.48914
H        -10.13716       13.19032      -12.46128
H         -5.95584       10.46655      -11.90636
H         -8.81571       14.20337      -14.81790
