120

C          1.82128        8.54535        3.35936
C          1.05252        9.11072        2.40120
C          1.24701       10.45194        1.97016
N          1.40586       11.55646        1.65167
C         -0.09370        8.43556        1.87329
N         -1.04562        7.88911        1.49285
C          2.87413        9.19856        4.17312
C          2.92528        8.54944        5.41938
C          3.87162        8.83517        6.38668
C          4.87568        9.75331        6.06025
C          4.86772       10.39963        4.78731
C          3.83856       10.14145        3.85957
C          5.93388       11.24461        4.45001
C          6.99759       11.43937        5.33281
C          6.99668       10.81726        6.57813
C          5.93622        9.98895        6.94568
C          2.03119        7.37253        5.41529
O          1.81636        6.60703        6.33083
C          1.60484        7.24008        3.98394
C          1.53852        5.99185        3.50019
C          1.75564        5.64683        2.07414
N          2.01616        6.49135        1.10440
C          2.14694        5.68914        0.01352
C          1.99372        4.30975        0.38653
C          2.16537        3.44767       -0.80312
O          2.14516        2.24120       -0.88818
C          2.37463        4.44764       -1.87219
C          2.35539        5.76967       -1.29607
N          2.54175        6.69855       -2.26817
C          2.65072        5.96987       -3.34606
C          2.56199        4.50254       -3.18238
C          1.73788        4.20348        1.68174
C          1.51222        3.05546        2.48757
C          0.53034        2.18099        2.22660
C          0.28583        1.08077        3.08765
S         -0.48272       -0.34589        2.45399
C          0.55778        0.94948        4.44855
C          0.04506       -0.25169        4.96215
C         -0.05153       -0.94946        6.23891
C          0.34784       -0.51378        7.45659
C          0.19868       -1.34719        8.70303
N          1.38797       -2.15794        8.92731
C          0.91082        0.86653        7.71892
N          2.36584        0.89678        7.62157
C         -0.48666       -1.03407        3.96385
C         -0.89917       -2.25782        4.52272
S         -1.54622       -3.66958        3.94405
C         -0.64740       -2.23774        5.87620
C         -1.01730       -3.45910        6.47535
C         -1.49574       -4.37709        5.53830
C         -1.92875       -5.71054        5.79809
C         -1.81804       -6.69223        4.89275
C         -2.30063       -8.05044        5.21678
N         -2.86188       -8.40721        6.34824
C         -3.20696       -9.70240        6.13105
C         -2.81404      -10.11089        4.80851
C         -3.22280      -11.51917        4.59148
O         -3.06854      -12.21902        3.61579
C         -3.87937      -11.85338        5.87767
C         -3.82328      -10.70505        6.74837
N         -4.43481      -10.98546        7.92772
C         -4.82687      -12.21981        7.76353
C         -4.50663      -12.86069        6.47022
C         -2.19880       -9.12365        4.17372
C         -1.64906       -9.08240        2.85874
C         -0.37279       -8.76153        2.60194
C          0.19217       -8.71103        1.27190
C         -0.16716       -7.89015        0.27147
C          0.32569       -7.83693       -1.12263
C          1.57140       -8.13704       -1.56833
C          1.97826       -7.90516       -2.91277
N          2.30757       -7.71968       -4.00960
C          2.60306       -8.61369       -0.70862
N          3.44455       -8.99850       -0.00103
C         -0.72894       -7.13861       -1.91468
C         -1.58826       -6.49306       -1.01893
C         -1.29959       -6.90084        0.36075
O         -1.92078       -6.52979        1.33449
C         -2.63374       -5.67444       -1.41051
C         -2.90389       -5.56456       -2.77559
C         -2.11171       -6.28563       -3.71370
C         -1.01332       -7.05841       -3.27188
C         -2.45919       -6.22627       -5.07208
C         -3.55730       -5.47487       -5.49845
C         -4.30990       -4.75039       -4.57855
C         -3.98013       -4.78775       -3.22481
H          3.88354        8.28022        7.32044
H          3.86829       10.61083        2.87968
H          5.96510       11.73474        3.47859
H          7.83430       12.06953        5.04135
H          7.83105       10.96435        7.25946
H          5.96534        9.50137        7.91817
H          1.51414        5.15842        4.19836
H          2.79991        6.38304       -4.35462
H          2.62266        3.73288       -3.92564
H          2.18402        2.92251        3.33211
H         -0.12231        2.31316        1.36557
H          1.06755        1.71242        5.01819
H         -0.68858       -1.98207        8.66895
H          0.02530       -0.71047        9.57769
H          1.47248       -2.82220        8.15651
H          2.21054       -1.56467        8.83758
H          0.61500        1.22341        8.71228
H          0.48220        1.60636        7.03956
H          2.76844        0.41617        8.42350
H          2.68003        1.86302        7.71355
H         -0.92475       -3.71868        7.52087
H         -2.32799       -5.92319        6.78802
H         -1.40648       -6.52249        3.90609
H         -5.37788      -12.79531        8.52061
H         -4.74691      -13.84636        6.13073
H         -2.33233       -9.33588        2.05010
H          0.32438       -8.56244        3.41454
H          0.98728       -9.44155        1.14663
H         -3.24337       -5.17587       -0.66170
H         -0.43309       -7.60744       -4.00824
H         -1.88682       -6.77945       -5.81425
H         -3.82728       -5.45762       -6.55153
H         -5.16318       -4.16482       -4.91181
H         -4.58497       -4.22005       -2.52013
