114

C         -6.02951        2.41280        2.18793
C         -5.36139        3.18947        1.28846
C         -5.96473        4.27455        0.61012
N         -6.46656        5.16234        0.04763
C         -4.11337        2.74592        0.76599
N         -3.13627        2.29813        0.32793
C         -7.51455        2.34843        2.23483
C         -7.86513        0.99104        2.28411
C         -9.17716        0.56197        2.12908
C        -10.17689        1.52369        1.87661
C         -9.83784        2.90733        1.86735
C         -8.50687        3.31150        2.09797
C        -10.83037        3.85438        1.55886
C        -12.12683        3.45591        1.22748
C        -12.46327        2.10659        1.24501
C        -11.50223        1.14978        1.58633
C         -6.64283        0.15520        2.46450
O         -6.58264       -1.05532        2.44780
C         -5.50620        1.13069        2.66830
C         -4.38418        0.78602        3.33630
C         -3.60321        1.72745        4.10166
S         -4.13996        1.87369        5.76090
C         -3.02569        3.09720        6.11344
C         -2.23025        3.38756        5.02896
N         -1.36573        4.53114        5.07198
O         -0.54097        4.57466        5.99348
O         -1.60204        5.42867        4.25225
C         -2.43868        2.49433        3.91129
N         -1.65160        2.48531        2.78366
C         -0.29290        2.81904        2.64729
C          0.70888        2.25475        3.36764
C          2.10307        2.57145        3.07626
C          3.24632        2.02003        3.56287
C          3.38621        0.80421        4.46819
C          3.46776       -0.49532        3.61734
N          2.31038       -0.76365        2.75908
C          4.58039        0.85881        5.45866
N          4.63415       -0.22801        6.43927
C          4.32155        2.73982        2.88546
C          5.63899        2.77111        3.12415
C          6.64908        3.54237        2.30800
C          5.98366        4.29496        1.15311
C          4.64478        4.36757        0.96828
C          3.77291        3.62519        1.85834
C          2.43228        3.54342        1.99778
C          1.33302        4.17969        1.30270
C          0.06325        3.81902        1.60937
C          7.80211        2.65050        1.86133
C          8.16582        1.47501        2.41584
C          9.23390        0.65164        1.93563
S         10.08834       -0.24203        3.14839
C         11.18919       -0.87288        2.02712
C         10.91774       -0.46515        0.73449
N         11.75404       -0.90023       -0.35760
O         12.65532       -1.70929       -0.09547
O         11.52646       -0.42385       -1.47455
C          9.72485        0.36072        0.65494
N          9.16447        0.80673       -0.52848
C          7.82004        1.07091       -0.75632
C          7.15044        1.68381       -1.74449
C          5.71901        2.06755       -1.78308
C          4.65940        1.43582       -1.21626
C          3.30535        1.80392       -1.47359
N          2.20509        2.11409       -1.69231
C          4.81391        0.29535       -0.38226
N          4.94941       -0.63628        0.29589
C          5.61057        3.17272       -2.76777
C          6.76896        3.19318       -3.55033
C          7.79642        2.30733       -2.95049
O          8.93952        2.16258       -3.33061
C          6.87952        3.99281       -4.68017
C          5.81975        4.87241       -4.98826
C          4.73059        4.99514       -4.08166
C          4.62735        4.12754       -2.98610
C          3.74620        5.97085       -4.29904
C          3.76286        6.75201       -5.45164
C          4.76153        6.55976       -6.40090
C          5.79503        5.64564       -6.16067
H         -9.40972       -0.49965        2.14610
H         -8.26660        4.37194        2.09296
H        -10.59230        4.91648        1.52663
H        -12.86809        4.19873        0.93973
H        -13.47126        1.79703        0.97657
H        -11.79414        0.10123        1.58573
H         -4.25349       -0.26446        3.60465
H         -3.03020        3.58060        7.08284
H         -1.95396        1.95563        1.95714
H          0.49246        1.51542        4.12885
H          2.48097        0.74573        5.08627
H          3.56163       -1.36344        4.27533
H          4.37226       -0.47893        2.99826
H          2.53676       -0.49538        1.80199
H          1.52677       -0.17671        3.03217
H          4.57567        1.81475        5.99517
H          5.52307        0.76474        4.92037
H          4.82158       -1.10699        5.95291
H          5.45359       -0.08728        7.03271
H          6.06347        2.26908        3.97063
H          7.09298        4.30357        2.96320
H          6.64498        4.87242        0.50973
H          4.22018        4.98260        0.18323
H          1.53333        4.94346        0.56001
H         -0.76593        4.31367        1.10930
H          8.39457        3.03658        1.03164
H          7.65938        1.10240        3.30199
H         11.98506       -1.52467        2.37015
H          9.74106        0.86601       -1.37927
H          7.24674        0.73031        0.09721
H          7.76700        3.94071       -5.30367
H          3.76195        4.21390       -2.33648
H          2.94820        6.12512       -3.57446
H          2.98434        7.49364       -5.61447
H          4.73938        7.12965       -7.32693
H          6.57264        5.53165       -6.91444
