95

C         -4.51640        5.56499       -7.41809
C         -5.76276        5.04170       -7.44895
C         -6.29937        4.42300       -8.61428
N         -6.73350        3.92129       -9.56613
C         -6.65059        5.16175       -6.34139
N         -7.34792        5.26797       -5.42014
C         -3.56251        5.63594       -8.55713
C         -2.73217        6.74520       -8.35333
C         -1.68984        7.07550       -9.19653
C         -1.35771        6.17647      -10.21276
C         -2.15759        5.01797      -10.42651
C         -3.28815        4.77633       -9.61317
C         -1.76222        4.10314      -11.41567
C         -0.58955        4.30225      -12.15002
C          0.19452        5.42988      -11.92525
C         -0.19515        6.36928      -10.97210
C         -2.98354        7.33709       -7.02656
O         -2.51593        8.36199       -6.57809
C         -3.91308        6.37300       -6.34048
C         -3.95105        6.18597       -5.00880
C         -3.14270        6.86512       -4.03985
C         -3.62094        7.66858       -2.88582
N         -2.71065        8.23734       -2.14415
C         -1.55479        7.85859       -2.74551
C         -1.82654        6.96145       -3.84446
C         -0.52973        6.46841       -4.39428
S         -0.26073        5.10702       -5.31295
C          0.45556        7.36478       -3.70197
C         -0.24990        8.09251       -2.66360
N          0.60612        8.85182       -1.93175
C          1.74654        8.65398       -2.52818
C          1.73081        7.74475       -3.70403
C          2.79802        7.41344       -4.56279
S          4.38606        7.33271       -3.91383
C          5.10902        6.95242       -5.42247
C          4.14199        6.79768       -6.39742
C          2.85302        7.19410       -5.93307
C          1.76478        7.41894       -6.82908
N          0.92969        7.65778       -7.59214
C          4.42987        6.37576       -7.74904
N          4.67133        6.01545       -8.82235
C          6.52215        6.90199       -5.58713
C          7.39222        6.66782       -4.59306
C          8.80875        6.66858       -4.78869
C          9.52975        6.88922       -6.07232
N         10.83078        6.85182       -6.03291
C         11.07396        6.60139       -4.72494
C          9.84488        6.49043       -3.96776
C         10.19028        6.21091       -2.53471
S          9.19553        5.98795       -1.22304
C         11.68491        6.17029       -2.58329
C         12.12124        6.42077       -3.93447
N         13.47403        6.38926       -4.02478
C         13.83047        6.10718       -2.80287
C         12.73842        5.95565       -1.80359
C         12.85009        5.65832       -0.40853
C         13.40730        4.55965        0.12806
C         13.50354        4.10965        1.53645
C         13.50987        4.88392        2.65202
C         13.73234        4.36982        3.95868
N         13.91468        3.95209        5.02432
C         13.36784        6.30328        2.59271
N         13.25581        7.45682        2.53551
C         13.77080        2.63847        1.49591
C         14.04819        2.27692        0.17267
C         13.89626        3.42342       -0.72323
O         14.10153        3.40404       -1.91838
C         14.35629        0.98925       -0.23319
C         14.37037       -0.01675        0.73295
C         14.06355        0.30150        2.08525
C         13.76100        1.63229        2.45380
C         14.06156       -0.73090        3.03489
C         14.35698       -2.04494        2.66506
C         14.66049       -2.34845        1.34114
C         14.66726       -1.33988        0.37877
H         -1.08563        7.95369       -8.99300
H         -3.86771        3.87126       -9.77214
H         -2.34573        3.20403      -11.60262
H         -0.27806        3.56654      -12.88751
H          1.11948        5.57255      -12.47890
H          0.44407        7.23233      -10.79238
H         -4.58905        5.42041       -4.57468
H         -4.70150        7.74229       -2.69394
H          2.69097        9.11744       -2.20370
H          6.87995        7.09165       -6.59673
H          7.04774        6.46777       -3.58084
H          8.96695        7.07336       -6.99575
H         14.87769        5.98811       -2.48560
H         12.36358        6.40336        0.21508
H         14.55780        0.78274       -1.28106
H         13.50645        1.82868        3.49079
H         13.82873       -0.52283        4.07765
H         14.34958       -2.83367        3.41365
H         14.89019       -3.37188        1.05515
H         14.90334       -1.59812       -0.65174
