104

C          1.23432        2.22821       -4.97409
C         -0.07182        2.20351       -5.44344
F         -0.55221        3.26632       -6.10150
C         -0.89513        1.10929       -5.21476
C         -0.39921       -0.00073       -4.52626
C          0.91198       -0.00160       -4.02365
C          1.72934        1.15071       -4.23181
C          2.99263        1.24335       -3.63254
C          3.39430        0.23977       -2.76957
C          2.64688       -0.94562       -2.67878
C          1.41404       -1.09079       -3.29143
C          3.35012       -1.92421       -1.81599
O          3.00745       -3.06324       -1.57989
C          4.59600       -1.22061       -1.35428
C          4.42818        0.19000       -1.70998
C          4.74561        1.25894       -0.93743
C          5.15745        1.09248        0.41890
N          5.41994        0.96126        1.54139
C          4.55542        2.60382       -1.36361
N          4.41531        3.69123       -1.74302
C          5.65745       -1.91498       -0.91444
C          6.96934       -1.36741       -0.74240
C          7.62468       -0.33177       -1.42302
C          8.97302       -0.22010       -1.02980
C          9.31802       -1.20052       -0.12933
S          8.04744       -2.12055        0.41311
C         10.72598       -1.23488       -0.02629
C         11.25342       -0.27553       -0.85582
C         10.17119        0.52454       -1.41120
C         10.24845        1.74119       -1.98425
C         11.49115        2.41255       -2.15487
N         12.49846        2.97413       -2.28603
C          9.07173        2.45814       -2.33345
N          8.08648        3.01244       -2.59643
C         12.64517       -0.42313       -1.00391
C         13.15096       -1.48253       -0.23417
S         11.85405       -2.20717        0.69300
C         14.53566       -2.03508       -0.21407
C         15.11800       -2.63620        0.92065
C         16.42519       -3.15056        0.87383
N         16.90961       -3.62038        2.09502
C         15.98171       -3.57912        3.01319
S         14.49654       -2.93406        2.51973
C         17.11717       -3.16975       -0.36176
C         16.52818       -2.59074       -1.50048
C         15.27136       -1.97467       -1.42693
N         14.84935       -1.37897       -2.61816
C         15.71038       -1.59130       -3.57844
S         17.06135       -2.52451       -3.15708
C         18.42258       -3.87041       -0.47282
C         19.52111       -3.60411       -1.30303
C         20.45677       -4.65880       -1.28238
C         20.16767       -5.56267       -0.28919
S         18.71025       -5.32942        0.45436
C         21.14377       -6.57574       -0.28680
C         21.99991       -6.36010       -1.33969
C         21.63968       -5.11091       -2.01290
C         22.23202       -4.54313       -3.08181
C         23.36893       -5.13592       -3.69663
N         24.29065       -5.65471       -4.17653
C         21.74084       -3.33838       -3.65861
N         21.33430       -2.36239       -4.13208
C         22.86456       -7.45630       -1.51599
C         22.72332       -8.39873       -0.48971
S         21.46226       -7.92787        0.61887
C         23.35863       -9.66104       -0.29350
C         24.59251       -9.95879       -0.72315
C         24.91531      -11.40678       -0.94591
O         24.41517      -12.37649       -0.41740
C         25.89648      -11.40784       -2.05007
C         26.33670      -12.51463       -2.75623
C         27.16741      -12.30090       -3.86378
C         27.51290      -10.96855       -4.24507
C         28.31899      -10.76653       -5.37225
C         28.78862      -11.85549       -6.09743
C         28.46762      -13.15555       -5.72983
C         27.65389      -13.37934       -4.61868
F         29.56381      -11.64599       -7.16891
C         27.04698       -9.86968       -3.49962
C         26.25995      -10.09164       -2.38084
C         25.64137       -9.18008       -1.38668
C         26.11701       -7.97046       -1.00437
C         25.64972       -7.30278        0.16236
N         25.29008       -6.74340        1.11933
C         27.16865       -7.30053       -1.69971
N         28.00395       -6.75083       -2.27105
H          1.83501        3.11594       -5.15563
H         -1.92208        1.13239       -5.56585
H         -1.06068       -0.84678       -4.35060
H          3.59672        2.13269       -3.78896
H          0.83610       -1.99959       -3.14608
H          5.54964       -2.99024       -0.75829
H          7.16727        0.23806       -2.22142
H         13.26028        0.15937       -1.67962
H         16.15086       -3.93327        4.02197
H         15.55722       -1.21550       -4.58215
H         19.57702       -2.73525       -1.94494
H         23.53589       -7.59330       -2.35306
H         22.73852      -10.45905        0.11937
H         26.01851      -13.51084       -2.46079
H         28.59461       -9.76728       -5.69949
H         28.85190      -13.98618       -6.31354
H         27.40471      -14.40434       -4.34720
H         27.29714       -8.86485       -3.82847
