108

C         -3.28304        2.59685        3.23614
C         -4.44043        2.89812        2.60830
C         -5.53791        3.48248        3.29909
N         -6.41669        3.97499        3.87351
C         -4.64911        2.53230        1.24477
N         -4.82022        2.19217        0.14898
C         -3.05407        2.58031        4.68809
C         -2.28476        1.43884        4.96430
C         -1.96193        1.06117        6.25158
C         -2.29071        1.94559        7.29007
C         -2.91041        3.19906        6.99771
C         -3.33326        3.49182        5.68948
C         -3.06209        4.14056        8.02569
C         -2.66533        3.84031        9.32928
C         -2.14478        2.58434        9.62894
C         -1.95734        1.64280        8.61619
C         -1.72671        0.89523        3.69450
O         -1.01321       -0.07288        3.55331
C         -2.13494        1.90611        2.65796
C         -1.26936        2.28756        1.69966
C         -1.31075        3.55744        1.02415
C         -0.83319        3.88606       -0.25319
C         -1.04821        5.25246       -0.56440
C         -1.64256        5.91274        0.48234
S         -1.85658        5.01131        1.84566
C         -1.88000        7.25018        0.12035
C         -1.41622        7.45513       -1.15743
C         -0.84158        6.20263       -1.66288
C         -0.24666        5.98330       -2.84799
C         -0.09579        7.01805       -3.81339
N          0.02932        7.86582       -4.59357
C          0.28948        4.71112       -3.18889
N          0.72834        3.67116       -3.45584
C         -1.63766        8.78636       -1.57263
C         -2.27920        9.52744       -0.57581
S         -2.58439        8.56573        0.84019
C         -2.68794       10.91355       -0.61598
C         -2.80782       11.79411        0.46173
C         -3.23828       13.06653        0.03506
C         -3.43621       13.10182       -1.32692
S         -3.11842       11.67721       -2.11690
C         -3.86439       14.39483       -1.69088
C         -3.93324       15.17647       -0.55993
C         -3.53893       14.38085        0.60250
C         -3.46455       14.77150        1.89039
C         -3.78170       16.09392        2.28850
N         -4.04131       17.17514        2.61772
C         -3.05460       13.87527        2.91773
N         -2.71906       13.14211        3.75205
C         -4.35706       16.48759       -0.86051
C         -4.59478       16.64081       -2.22788
S         -4.28837       15.16472       -3.09804
C         -5.03486       17.83200       -2.92121
C         -5.78461       17.90458       -4.09679
C         -6.01065       19.24436       -4.47693
C         -5.44111       20.12722       -3.58705
S         -4.63742       19.41632       -2.32003
C         -5.70129       21.44468       -4.02130
C         -6.43342       21.39385       -5.18749
C         -6.67343       19.99420       -5.54495
C         -7.33946       19.50719       -6.61012
C         -7.93848       20.36446       -7.57249
N         -8.43118       21.06240       -8.35514
C         -7.48608       18.10889       -6.82736
N         -7.60748       16.96938       -6.99861
C         -6.71739       22.68677       -5.67994
C         -6.15709       23.67077       -4.86446
S         -5.35287       22.97656       -3.48143
C         -6.20958       25.08864       -4.99148
C         -5.26531       25.81457       -5.61466
C         -5.11099       27.28924       -5.70127
C         -6.10059       28.21671       -5.72127
C         -5.85843       29.60292       -5.94330
N         -5.66424       30.73251       -6.12491
C         -7.47711       27.86889       -5.59920
N         -8.59566       27.57927       -5.49392
C         -3.66399       27.54805       -5.97625
C         -3.05898       26.33163       -6.31559
C         -4.02076       25.22452       -6.22031
O         -3.81915       24.08931       -6.59733
C         -1.72179       26.20939       -6.65939
C         -0.93071       27.36222       -6.66562
C         -1.50361       28.61315       -6.30419
C         -2.86971       28.69026       -5.94539
C         -0.68847       29.75749       -6.32074
C          0.65654       29.67590       -6.69050
C          1.21122       28.44874       -7.04072
C          0.42366       27.29785       -7.02441
H         -1.40296        0.14786        6.43058
H         -3.81235        4.44181        5.46575
H         -3.46935        5.12853        7.81801
H         -2.76668        4.58735       10.11284
H         -1.86309        2.34318       10.65086
H         -1.52988        0.67537        8.87137
H         -0.39830        1.66253        1.50118
H         -0.38087        3.14795       -0.90587
H         -1.35800        9.21225       -2.52885
H         -2.58042       11.50584        1.48109
H         -4.49924       17.29192       -0.14887
H         -6.13520       17.02382       -4.62127
H         -7.27330       22.92671       -6.57817
H         -7.04625       25.55490       -4.48267
H         -1.31351       25.23450       -6.91149
H         -3.26554       29.65641       -5.64713
H         -1.09566       30.73175       -6.05571
H          1.27118       30.57294       -6.70837
H          2.25746       28.38602       -7.33025
H          0.87743       26.34832       -7.30173
