114

C         -0.91249        3.40680        7.84175
C         -1.80862        2.24123        8.14609
O         -2.85939        1.98527        7.59474
C         -1.09875        1.45618        9.19336
C          0.10564        2.11691        9.51941
C          0.03462        3.48096        8.94464
C          0.34051        4.60077        9.64479
C         -0.32628        5.83130        9.35902
N         -0.96654        6.78269        9.17648
C          1.10304        4.56544       10.84870
N          1.71129        4.50781       11.83605
C          1.04852        1.48992       10.31158
C          0.71875        0.25435       10.87699
C         -0.54489       -0.34563       10.67098
C         -1.48264        0.25006        9.79240
C         -2.73884       -0.36758        9.61023
C         -3.07177       -1.52899       10.30715
C         -2.15091       -2.10533       11.17490
C         -0.89290       -1.52552       11.34509
C         -0.98750        3.98617        6.63607
C          0.01083        4.91372        6.04428
N          1.14126        5.29553        6.59409
C          1.72490        6.06073        5.62595
C          0.87873        6.11688        4.46413
C          1.52862        6.93868        3.41320
O          1.15223        7.20504        2.29417
C          2.79121        7.32789        4.06780
C          2.83590        6.75914        5.39215
N          4.00593        7.10441        5.99045
C          4.59835        7.83063        5.07966
C          3.88348        8.02932        3.80190
C         -0.22867        5.40911        4.64347
C         -1.33839        5.19608        3.76595
C         -1.19554        5.09595        2.43445
C         -2.31346        4.87438        1.59345
S         -2.76671        3.25292        1.28185
C         -4.08133        3.68401        0.23737
C         -4.16676        5.06572        0.15958
C         -3.13123        5.74328        0.90355
C         -2.97446        7.13484        0.93246
C         -3.97366        7.83116        0.19654
C         -3.87277        9.34131        0.18718
C         -5.01442        7.15353       -0.54387
O         -5.85170        7.97692       -1.27245
C         -7.20176        7.53915       -1.41264
C         -5.13393        5.74095       -0.60217
C         -4.89591        2.65324       -0.33361
C         -4.38414        1.45900       -0.67644
C         -5.24269        0.39154       -1.22278
N         -6.31903        0.62469       -1.93233
C         -6.69896       -0.61427       -2.32521
C         -5.78381       -1.61045       -1.82532
C         -6.23539       -2.94506       -2.30298
O         -5.71508       -4.02666       -2.13623
C         -7.45593       -2.61127       -3.08673
C         -7.65442       -1.18464       -3.05042
N         -8.75031       -0.84152       -3.77593
C         -9.17953       -1.99373       -4.20951
C         -8.40667       -3.19112       -3.80987
C         -4.83930       -1.05711       -1.06775
C         -3.76422       -1.67740       -0.32702
C         -3.31233       -1.21476        0.84867
C         -2.25315       -1.70566        1.70056
C         -2.02122       -2.85866        2.34800
C         -0.82452       -2.84187        3.28204
O         -0.12798       -1.88056        3.54481
C         -0.66167       -4.21310        3.80629
C         -1.60929       -5.04655        3.18489
C         -2.61070       -4.20067        2.44834
C         -3.89042       -4.59409        2.21760
C         -4.93346       -3.71992        1.81084
N         -5.85426       -3.06483        1.53777
C         -4.36081       -5.90691        2.50985
N         -4.75607       -6.97767        2.75508
C         -1.51609       -6.41548        3.38666
C         -0.59503       -6.91307        4.31540
C          0.25947       -6.06191        5.03878
C          0.26084       -4.67256        4.77227
C          1.14596       -3.85468        5.51397
C          1.97731       -4.39334        6.50035
C          1.95411       -5.75814        6.75997
C          1.10658       -6.58736        6.02776
H          2.01756        1.93384       10.52169
H          1.44933       -0.22866       11.52566
H         -3.48691        0.07021        8.95157
H         -4.05568       -1.97393       10.18022
H         -2.41346       -3.00388       11.72746
H         -0.19194       -1.99276       12.03400
H         -1.78110        3.66145        5.96795
H          5.58868        8.29479        5.20680
H          4.18333        8.57760        2.93102
H         -2.32485        5.11372        4.21825
H         -0.22457        5.14560        1.94991
H         -2.17636        7.65156        1.45342
H         -3.45230        9.69885        1.13506
H         -4.85100        9.82059        0.08426
H         -3.22004        9.67081       -0.62693
H         -7.71400        8.24529       -2.07413
H         -7.71178        7.55131       -0.44385
H         -7.28753        6.55688       -1.88420
H         -5.86748        5.22527       -1.20194
H         -5.95339        2.86128       -0.48340
H         -3.33065        1.22851       -0.58416
H        -10.06630       -2.11734       -4.84982
H         -8.59061       -4.21544       -4.06366
H         -3.38352       -2.61365       -0.73130
H         -3.74435       -0.29945        1.25694
H         -1.55607       -0.88435        1.90848
H         -2.14130       -7.13459        2.86834
H         -0.57077       -7.98818        4.49442
H          1.18008       -2.77915        5.35054
H          2.63561       -3.74273        7.07114
H          2.59241       -6.17924        7.53287
H          1.10172       -7.65330        6.24887
