115

C         -3.88630        0.71341        1.06218
C         -2.65606        0.80366        0.50527
C         -1.54721        1.40024        1.17118
N         -0.64824        1.90107        1.70412
C         -2.37506        0.20168       -0.75460
N         -2.19172       -0.31946       -1.78017
C         -4.26053        1.04268        2.46447
C         -5.38704        0.27990        2.79452
C         -6.01657        0.32447        4.02951
C         -5.50292        1.22470        4.98977
C         -4.37899        1.99844        4.66311
C         -3.73528        1.92204        3.40190
S         -3.92604        3.02228        5.97813
C         -5.21340        2.47482        6.95011
C         -5.97074        1.52088        6.31368
C         -5.82268       -0.52371        1.63923
O         -6.51500       -1.51546        1.68054
C         -5.06422        0.03976        0.47758
C         -5.50768        0.11329       -0.78566
C         -6.83114       -0.36152       -1.24855
N         -7.93905       -0.37970       -0.54752
C         -8.85848       -0.86717       -1.42200
C         -8.26042       -1.06950       -2.71329
C         -9.27971       -1.61975       -3.64673
O         -9.17510       -1.89999       -4.81862
C        -10.46762       -1.73925       -2.76576
C        -10.12998       -1.25423       -1.44956
N        -11.20303       -1.36914       -0.62519
C        -12.10943       -1.89808       -1.40021
C        -11.72233       -2.16747       -2.80246
C         -6.97436       -0.74800       -2.68575
C         -5.96874       -0.83156       -3.69360
C         -6.07201       -0.21302       -4.87900
C         -5.11582       -0.37494       -5.92671
S         -4.86742        0.97790       -6.97917
C         -3.70209        0.17165       -7.96870
C         -3.47843       -1.09560       -7.46560
C         -4.31505       -1.42946       -6.33487
C         -4.29309       -2.69593       -5.72002
C         -3.35030       -3.60136       -6.27187
S         -3.25138       -5.20451       -5.43753
C         -1.75744       -4.92563       -4.41464
C         -1.46656       -6.15564       -3.56657
C         -2.54615       -3.26908       -7.41744
S         -1.53949       -4.48604       -8.30048
C         -2.78187       -5.06198       -9.52025
C         -3.21847       -3.99023      -10.51018
C         -2.54519       -1.98186       -8.01380
C         -3.14248        0.91682       -9.05001
C         -2.88786        0.40063      -10.26507
C         -2.21837        1.27921      -11.25905
N         -1.84877        2.51144      -11.00003
C         -1.26326        2.91917      -12.15035
C         -1.31258        1.86525      -13.13431
C         -0.64647        2.36251      -14.37025
O         -0.54331        1.83598      -15.46237
C         -0.20846        3.71561      -13.98288
C         -0.64021        3.98132      -12.63386
N         -0.25690        5.23436      -12.26936
C          0.36548        5.67172      -13.32859
C          0.45378        4.75105      -14.48306
C         -1.91337        0.78021      -12.64679
C         -2.09935       -0.52737      -13.21905
C         -2.23148       -0.74914      -14.53714
C         -2.30903       -2.06305      -15.15105
C         -1.91463       -2.34470      -16.40373
C         -1.25638       -1.51905      -17.42334
C         -0.14679       -0.76152      -17.23012
C          0.50785       -0.05281      -18.27484
N          1.03139        0.52013      -19.13899
C          0.56493       -0.81009      -15.98969
N          1.17317       -0.93514      -15.01048
C         -1.59900       -2.10955      -18.74397
C         -1.99428       -3.43235      -18.51239
C         -2.22928       -3.65438      -17.06585
O         -2.62364       -4.67416      -16.54127
C         -2.09163       -4.37793      -19.52440
C         -1.78795       -3.95946      -20.84409
C         -1.52706       -2.60132      -21.08199
C         -1.46288       -1.64344      -20.04349
S         -1.25850       -2.29783      -22.75948
C         -1.35046       -3.95288      -23.14949
C         -1.65812       -4.72454      -22.05352
H         -6.89285       -0.28652        4.22783
H         -2.88188        2.56116        3.20406
H         -5.35686        2.87731        7.94370
H         -6.83651        1.05431        6.76887
H         -4.93606        0.63153       -1.54865
H        -13.12754       -2.15238       -1.07074
H        -12.30545       -2.60218       -3.58902
H         -5.10927       -1.44396       -3.43789
H         -6.90765        0.46207       -5.06305
H         -4.94044       -2.99607       -4.90736
H         -1.91241       -4.06022       -3.76120
H         -0.89898       -4.71758       -5.06042
H         -2.31084       -6.41144       -2.91705
H         -0.60055       -5.97292       -2.92012
H         -1.23123       -7.02484       -4.19019
H         -3.65037       -5.46039       -8.98717
H         -2.33427       -5.89132      -10.07863
H         -3.57222       -3.07962      -10.02638
H         -4.06173       -4.35231      -11.10608
H         -2.40812       -3.72384      -11.19622
H         -1.91214       -1.75374       -8.86068
H         -2.92980        1.96913       -8.85583
H         -3.12281       -0.61640      -10.53837
H          0.81530        6.67137      -13.41121
H          0.92443        4.90068      -15.43259
H         -2.04796       -1.37052      -12.53542
H         -2.26382        0.09365      -15.22384
H         -2.76729       -2.85087      -14.55204
H         -2.32800       -5.41376      -19.29781
H         -1.23440       -0.60928      -20.27949
H         -1.18058       -4.28155      -24.16592
H         -1.76126       -5.80181      -22.10580
