140

C         -4.23662      -16.23273       -3.93505
C         -4.90641      -16.44056       -2.72355
C         -5.51136      -15.37650       -2.03511
C         -5.50114      -14.08628       -2.56485
C         -4.87850      -13.89009       -3.78746
C         -4.20598      -14.95065       -4.46024
C         -3.44990      -14.36170       -5.61965
C         -3.09512      -14.96560       -6.77320
C         -3.43022      -16.31948       -7.04075
N         -3.73493      -17.42133       -7.26012
C         -2.49166      -14.23173       -7.83508
N         -1.98911      -13.62288       -8.68328
C         -3.42177      -12.90381       -5.34276
C         -4.68143      -12.67021       -4.60765
C         -5.61416      -11.73450       -4.88408
C         -5.49015      -10.90513       -6.04113
N         -5.43023      -10.30315       -7.02528
C         -6.81610      -11.62793       -4.13811
N         -7.78468      -11.53591       -3.49847
C         -2.32516      -12.10724       -5.36126
C         -2.20364      -10.85185       -4.66003
S         -2.93529      -10.65655       -3.12219
C         -2.22978       -9.14396       -2.80452
C         -1.57229       -8.67833       -3.92915
C         -1.43342       -9.72366       -4.93298
C         -0.46881       -9.53578       -6.07613
C          0.64421       -8.51539       -5.71774
C          1.60053       -9.03902       -4.62381
O          1.23930       -9.88556       -3.79804
C          3.00917       -8.46470       -4.56837
F          3.27745       -7.58331       -5.56889
F          3.25151       -7.80309       -3.40309
F          3.95420       -9.44203       -4.65876
C         -0.02622       -7.19545       -5.30330
C         -0.88999       -7.33699       -4.04207
C         -2.37398       -8.54265       -1.52111
C         -2.52579       -9.28929       -0.41195
C         -2.68047       -8.74721        0.92524
C         -3.46211       -9.42718        1.80539
C         -3.74851       -8.84723        3.10372
C         -4.60345       -9.20640        4.10060
C         -5.44227      -10.46990        4.34299
C         -6.38709      -10.96310        3.20865
N         -7.55083      -10.11676        2.94725
C         -4.57235      -11.69747        4.79382
N         -3.56941      -12.16772        3.83544
C         -4.53073       -8.06423        5.04064
C         -5.38562       -7.59998        5.96989
C         -5.06400       -6.39357        6.86199
C         -3.82884       -5.61334        6.42607
C         -3.05788       -5.98586        5.39133
C         -3.42596       -7.17929        4.67623
C         -3.01916       -7.60794        3.47812
C         -2.10397       -6.98442        2.56231
C         -1.96916       -7.52653        1.34290
C         -4.88690       -6.87912        8.28470
C         -5.62947       -6.49365        9.33664
C         -5.43142       -7.08438       10.61835
S         -6.36098       -8.46369       11.05773
C         -5.57150       -8.63604       12.56691
C         -4.69300       -7.59213       12.79726
C         -4.56031       -6.73781       11.64013
C         -3.49361       -5.67430       11.59512
C         -2.29274       -6.08531       12.48090
C         -1.55606       -7.28980       11.85923
O         -1.93499       -7.79825       10.79625
C         -0.28738       -7.78111       12.53293
F          0.00438       -7.12976       13.69031
F         -0.35229       -9.10485       12.84708
F          0.80288       -7.62740       11.73156
C         -2.81009       -6.30611       13.91626
C         -3.85864       -7.41930       14.03699
C         -5.84137       -9.76360       13.38965
C         -5.06465      -10.85196       13.27609
C         -5.18993      -12.01182       14.12885
C         -5.47034      -13.25742       13.70203
C         -5.06952      -14.48568       14.42587
C         -5.26379      -14.75159       15.73903
C         -5.90020      -13.82042       16.60875
N         -6.40659      -13.04988       17.31727
C         -4.90130      -15.99574       16.32443
N         -4.60046      -17.00185       16.80936
C         -4.51187      -15.38620       13.36083
C         -4.87032      -14.85585       12.08449
C         -4.38066      -15.42062       10.91499
C         -3.55569      -16.54276       11.01014
C         -3.21921      -17.08154       12.25860
C         -3.68482      -16.50018       13.44206
C         -5.72685      -13.65675       12.30509
C         -6.73086      -13.20695       11.51502
C         -6.96029      -13.72161       10.21363
N         -7.13715      -14.14780        9.14209
C         -7.72464      -12.31484       12.01941
N         -8.57374      -11.64972       12.44979
H         -3.73672      -17.07054       -4.40954
H         -4.93630      -17.43949       -2.29142
H         -5.98669      -15.56040       -1.07305
H         -5.94681      -13.27002       -2.00404
H         -1.39885      -12.47555       -5.79852
H         -1.04170       -9.16251       -6.93526
H         -0.01983      -10.49047       -6.36987
H          1.24127       -8.35197       -6.62382
H         -0.67172       -6.86027       -6.12843
H          0.71389       -6.40024       -5.15599
H         -1.65309       -6.54816       -4.04176
H         -0.25778       -7.16864       -3.16153
H         -2.32029       -7.45900       -1.46092
H         -2.55305      -10.37412       -0.46234
H         -3.95928      -10.34506        1.52638
H         -6.09247      -10.26612        5.20541
H         -6.78050      -11.95521        3.47328
H         -5.84232      -11.10833        2.27361
H         -8.31994      -10.41474        3.55000
H         -7.88223      -10.29909        1.99857
H         -5.24370      -12.54473        4.99597
H         -4.07505      -11.48109        5.74634
H         -3.97060      -12.27163        2.90857
H         -3.22623      -13.08672        4.11177
H         -6.37069       -8.03854        6.07436
H         -5.90758       -5.69300        6.79840
H         -3.59611       -4.69438        6.95763
H         -2.21186       -5.39030        5.06735
H         -1.57956       -6.07669        2.83209
H         -1.30643       -7.05561        0.62499
H         -4.10616       -7.62807        8.42761
H         -6.42158       -5.75907        9.22949
H         -3.91919       -4.73143       11.96187
H         -3.15536       -5.50081       10.56768
H         -1.57342       -5.25677       12.48915
H         -3.27103       -5.36616       14.25516
H         -1.99716       -6.49808       14.62399
H         -4.51620       -7.20003       14.88908
H         -3.34544       -8.36068       14.26520
H         -6.64966       -9.70756       14.11012
H         -4.25270      -10.88129       12.54782
H         -4.83024      -11.83224       15.14079
H         -4.58995      -15.00523        9.93485
H         -3.15501      -16.99410       10.10453
H         -2.56500      -17.95056       12.30739
H         -3.35552      -16.92392       14.38452
