140

C         -5.36448        6.69918       -8.72630
C         -4.08675        6.72657       -9.17978
C         -3.76537        6.29106      -10.50159
N         -3.51919        5.92541      -11.57935
C         -2.99340        7.09465       -8.34027
N         -2.11639        7.40171       -7.65835
C         -6.57920        6.21336       -9.43551
C         -7.48994        5.76697       -8.46356
C         -8.79943        5.42455       -8.73811
C         -9.24902        5.60555      -10.04716
C         -8.34325        6.03062      -11.06621
C         -6.99556        6.31349      -10.75333
C         -8.83535        6.22364      -12.36493
C        -10.19307        6.05488      -12.64685
C        -11.07729        5.67868      -11.63953
C        -10.60575        5.43961      -10.35002
C         -6.94333        5.98815       -7.11659
O         -7.34281        5.49006       -6.08859
C         -5.80990        6.94487       -7.34791
C         -5.56849        8.02673       -6.58669
C         -6.25148        8.26424       -5.36130
S         -5.56994        7.60376       -3.94999
C         -6.83368        8.16794       -2.93631
C         -7.77763        8.85528       -3.68327
C         -7.38200        9.01820       -5.06327
C         -8.19700        9.86654       -6.03269
C         -7.41013       11.07695       -6.58186
F         -6.14398       11.14648       -6.11099
F         -7.31544       10.99429       -7.93293
F         -7.99338       12.26425       -6.30205
C         -9.57219       10.31754       -5.45899
C        -10.10175        9.44678       -4.31803
C         -9.08091        9.40765       -3.17826
C         -6.82892        7.93560       -1.53018
C         -5.86691        7.23899       -0.91025
C         -5.76716        7.07883        0.52322
C         -5.70553        8.19576        1.28817
C         -5.33545        8.10535        2.68337
C         -5.06621        9.05672        3.62499
C         -5.14848       10.59702        3.59304
C         -4.94371       11.22091        2.17706
N         -4.92995       12.68821        2.08907
C         -6.50884       11.09111        4.16381
N         -6.61955       11.00890        5.61535
C         -4.50416        8.27003        4.74749
C         -3.79864        8.62917        5.83363
C         -3.11788        7.58719        6.72562
C         -3.52573        6.14554        6.45542
C         -4.24217        5.79286        5.37754
C         -4.63146        6.83840        4.47264
C         -5.10026        6.74603        3.22685
C         -5.30962        5.57107        2.41722
C         -5.60187        5.74700        1.11848
C         -3.24179        7.91855        8.18245
C         -4.38208        8.03270        8.88304
C         -4.38510        8.33712       10.27944
S         -3.12158        7.77323       11.30215
C         -3.90876        8.28049       12.72365
C         -5.12181        8.87422       12.44074
C         -5.32450        9.05153       11.02065
C         -6.53298        9.79749       10.46832
C         -6.21595       10.94322        9.48732
F         -5.03763       10.80878        8.84761
F         -7.18365       10.98973        8.53607
F         -6.20188       12.15494       10.09048
C         -7.46406       10.33679       11.58736
C         -7.52755        9.42208       12.81012
C         -6.14155        9.30322       13.45260
C         -3.27690        8.03564       13.96715
C         -3.40839        6.83788       14.55329
C         -2.70616        6.50473       15.77175
C         -2.39068        5.26598       16.18853
C         -1.73164        4.84212       17.44388
C         -0.88707        5.56861       18.22454
C         -0.24127        5.03142       19.37337
N          0.27275        4.60087       20.31140
C         -0.53346        6.92269       17.93181
N         -0.24458        8.02178       17.70973
C         -2.02750        3.38474       17.59541
C         -2.57847        2.91536       16.39643
C         -2.77734        4.01747       15.45013
O         -3.19269        3.88493       14.31857
C         -2.94496        1.59759       16.17464
C         -2.78029        0.68527       17.21893
C         -2.26091        1.13138       18.46560
C         -1.89148        2.48391       18.64329
C         -2.12588        0.20655       19.51173
C         -2.48853       -1.13088       19.33579
C         -2.98984       -1.56382       18.11215
C         -3.13653       -0.66184       17.05842
H         -9.46554        5.13148       -7.93149
H         -6.33747        6.70025      -11.52686
H         -8.17094        6.53520      -13.16861
H        -10.56382        6.23280      -13.65334
H        -12.13803        5.57724      -11.85512
H        -11.31567        5.15678       -9.57499
H         -4.86064        8.78854       -6.89916
H         -8.42462        9.20795       -6.88307
H        -10.30862       10.34699       -6.27182
H         -9.51634       11.34081       -5.06780
H        -10.30661        8.43326       -4.68467
H        -11.05000        9.85564       -3.94943
H         -9.48188        8.79106       -2.36637
H         -8.91852       10.41654       -2.77829
H         -7.62762        8.37466       -0.93841
H         -5.04364        6.77367       -1.44812
H         -5.80213        9.15527        0.81178
H         -4.33898       10.99992        4.21671
H         -5.75943       10.92038        1.52119
H         -3.99886       10.85891        1.75660
H         -5.81983       13.07170        2.40698
H         -4.87820       12.95315        1.10351
H         -7.33149       10.53685        3.69609
H         -6.67885       12.14442        3.92462
H         -6.18797       10.15832        5.96616
H         -7.60043       10.98270        5.88919
H         -3.58887        9.67234        6.04668
H         -2.04459        7.63735        6.48995
H         -3.17860        5.37343        7.13788
H         -4.49705        4.75964        5.17215
H         -5.19052        4.58016        2.83655
H         -5.72567        4.88869        0.46380
H         -2.28151        8.06684        8.67196
H         -5.33715        7.89451        8.38202
H         -7.11043        9.04349        9.91407
H         -8.46982       10.49726       11.18196
H         -7.11174       11.31562       11.93910
H         -7.89908        8.43390       12.51146
H         -8.23373        9.82787       13.54299
H         -6.19530        8.57486       14.27031
H         -5.83783       10.26430       13.88332
H         -2.62751        8.80815       14.36867
H         -4.03406        6.07887       14.08729
H         -2.45310        7.37668       16.36555
H         -3.36444        1.30321       15.21606
H         -1.52301        2.78884       19.61736
H         -1.73405        0.51770       20.47803
H         -2.37682       -1.83434       20.15680
H         -3.26949       -2.60581       17.97680
H         -3.53359       -1.02053       16.11108
