90

C         -0.28207       -1.37572        2.55925
S         -0.61099       -1.01753        0.89638
C         -2.13679       -0.46831        1.30219
C         -2.41568       -0.54746        2.63614
C         -1.34973       -1.07312        3.39033
C         -3.74930       -0.04283        2.83509
O         -4.37616        0.04482        3.87579
C         -4.19308        0.36658        1.44026
C         -3.20399        0.06736        0.56746
C         -5.48974        0.92003        1.15908
C         -5.71991        1.80411        0.17696
C         -7.02141        2.33364       -0.04138
O         -8.15986        1.64762        0.30254
C         -9.26885        2.37121       -0.03417
C         -8.83201        3.56450       -0.58059
C         -7.40837        3.55719       -0.58935
C         -6.49267        4.59992       -1.05877
O         -5.37710        4.29786       -1.49584
C         -6.93867        6.06076       -0.98197
F         -8.16431        6.25177       -0.41657
F         -6.07349        6.81734       -0.24782
F         -7.00186        6.64295       -2.21295
C        -10.60499        1.93370        0.14588
C        -10.89550        0.72345        0.64728
C        -12.26345        0.22471        0.81645
C        -12.63633       -0.66629        1.83878
F        -11.69240       -1.09611        2.69421
C        -13.96150       -1.11934        2.04078
F        -14.18620       -1.93973        3.08255
C        -15.05040       -0.76290        1.21976
C        -14.70966        0.10022        0.15080
C        -13.32824        0.58998       -0.04535
N        -13.32613        1.38648       -1.13039
N        -14.60590        1.38163       -1.51386
C        -15.00084        2.11620       -2.70120
C        -16.42989        2.62999       -2.67364
N        -15.47409        0.63763       -0.81937
C        -16.41822       -1.19618        1.50577
C        -17.38572       -1.41473        0.60121
C        -18.67325       -1.84200        1.03875
O        -19.15057       -1.52565        2.28560
C        -20.39483       -2.05409        2.47932
C        -20.73398       -2.72688        1.31924
C        -19.66158       -2.57792        0.38392
C        -19.54958       -3.10276       -0.98059
O        -18.43873       -3.31575       -1.47811
C        -20.82561       -3.37518       -1.77636
F        -21.97696       -2.99936       -1.15002
F        -20.82898       -2.71872       -2.97227
F        -20.97638       -4.69797       -2.06960
C        -21.12487       -1.90337        3.69015
C        -20.90380       -0.83393        4.47229
C        -21.58392       -0.61234        5.73443
C        -21.48607        0.47267        6.52599
C        -22.25184        0.76672        7.78808
C        -22.74242       -0.10069        8.68618
N        -23.29119        0.30594        9.92674
O        -24.51237        0.52526        9.95257
O        -22.51379        0.45412       10.87710
N        -22.55937       -1.50078        8.60677
O        -21.47738       -1.95862        8.99137
O        -23.48159       -2.15762        8.10685
C        -22.20869        2.20227        7.90930
C        -22.82932        3.16341        8.65855
S        -22.22168        4.73059        8.24437
C        -21.15676        4.09352        7.04925
C        -21.29217        2.73432        6.97489
C        -20.70887        1.73072        6.12518
O        -19.83665        1.88366        5.29545
H          0.67917       -1.78826        2.83340
H         -1.34776       -1.22002        4.46321
H         -3.21404        0.20765       -0.50337
H         -6.29245        0.60689        1.82706
H         -4.91084        2.14925       -0.46049
H         -9.49129        4.34252       -0.94481
H        -11.38950        2.62223       -0.15325
H        -10.10399        0.05571        0.98352
H        -14.84401        1.44563       -3.55247
H        -14.31284        2.96433       -2.80047
H        -17.14756        1.80437       -2.62756
H        -16.64013        3.20891       -3.57808
H        -16.59911        3.27491       -1.80503
H        -16.61863       -1.37764        2.56200
H        -17.20566       -1.30024       -0.46340
H        -21.66447       -3.26087        1.17530
H        -21.85141       -2.66590        3.95217
H        -20.17816       -0.09273        4.14035
H        -22.25168       -1.42740        6.00237
H        -23.59740        3.08596        9.41713
H        -20.51973        4.74280        6.46232
