100

C         -0.88719      -10.99150       -7.88423
C         -0.48656      -10.68871       -9.18135
F         -0.13969      -11.68457      -10.00751
C         -0.43211       -9.37123       -9.61415
F         -0.02716       -9.08640      -10.85882
C         -0.78801       -8.33155       -8.76236
C         -1.18730       -8.61037       -7.44909
C         -1.22778       -9.96201       -6.99542
C         -1.57454      -10.25512       -5.66125
C         -1.83877       -9.22179       -4.77465
C         -1.84774       -7.90833       -5.26832
C         -1.53220       -7.57609       -6.57651
C         -2.22649       -6.95294       -4.22339
O         -2.36967       -5.75355       -4.35581
C         -2.44791       -7.76852       -2.99201
C         -2.06111       -9.16949       -3.29325
C         -1.79058      -10.17129       -2.42632
C         -1.69985       -9.94100       -1.01618
N         -1.57477       -9.75003        0.12296
C         -1.47713      -11.50977       -2.82030
N         -1.24106      -12.59507       -3.14558
C         -3.06640       -7.21299       -1.93922
N         -3.53608       -5.90999       -1.79110
C         -4.25622       -5.38047       -0.74999
S         -4.61341       -6.32651        0.65891
C         -5.51288       -5.10029        1.37172
N         -6.18628       -5.34226        2.62233
O         -6.81263       -4.38192        3.09557
O         -6.11600       -6.46507        3.12549
C         -5.50903       -3.94142        0.63191
C         -4.82487       -4.10319       -0.62956
C         -4.75298       -3.06430       -1.64593
C         -5.68806       -2.10725       -1.84510
C         -5.65871       -1.09447       -2.87984
C         -6.73995       -0.38907       -3.45244
C         -8.10507       -0.77135       -3.24138
N         -9.20104       -1.14016       -3.14991
C         -6.29393        0.59267       -4.36592
C         -4.97629        0.50024       -4.63474
S         -4.16268       -0.57019       -3.63961
S         -4.47735        1.47978       -5.92223
C         -6.05142        2.08883       -6.06156
C         -6.89846        1.59433       -5.13638
C         -8.12217        2.29866       -5.07876
C         -9.01305        2.26778       -3.95980
N         -9.61509        2.26348       -2.96849
C         -8.25590        3.18976       -6.16302
S         -6.75151        3.22312       -7.07777
C         -9.33687        4.10626       -6.51228
C         -9.43244        5.49057       -5.97252
C         -8.46758        6.20827       -5.36709
S         -9.12054        7.73357       -4.88861
F         -8.40659        8.89400       -5.68368
C        -10.66963        7.48631       -5.57799
C        -10.67559        6.27057       -6.13668
C        -11.74395        5.75077       -6.93852
C        -11.56375        4.56090       -7.52746
C        -10.35862        3.70128       -7.34174
C        -10.34355        2.44020       -8.09725
C        -10.42071        2.45179       -9.44094
C        -10.52509        1.27155      -10.27814
C        -10.13721        1.19014      -11.56367
C        -10.27676        0.09721      -12.55980
C        -10.39883       -1.23446      -12.30881
C        -10.41885       -2.21819      -13.33384
N        -10.43903       -3.03401      -14.16167
C        -10.44707       -1.76057      -10.98564
N        -10.48117       -2.19435       -9.90480
C        -10.07790        0.72487      -13.90680
C         -9.63102        2.03503      -13.72134
C         -9.52824        2.35402      -12.29657
O         -9.01355        3.35904      -11.85306
C         -9.33889        2.92351      -14.75002
C         -9.46684        2.45433      -16.07352
C         -9.91635        1.14095      -16.27835
C        -10.25309        0.26892      -15.20916
S         -9.97886        0.76673      -17.96523
C         -9.38216        2.28718      -18.39051
C         -9.19041        3.11568      -17.31815
Br        -9.00730        2.78412      -20.15701
H         -0.90729      -12.03457       -7.57806
H         -0.73157       -7.31145       -9.13229
H         -1.59873      -11.29660       -5.35800
H         -1.53255       -6.53425       -6.88718
H         -3.29561       -7.83639       -1.08250
H         -3.36336       -5.33080       -2.62070
H         -6.00115       -3.03425        0.96327
H         -3.88352       -3.10334       -2.29802
H         -6.57139       -2.10341       -1.20622
H         -7.44095        5.92964       -5.19332
H         -9.15100        7.93096       -3.55869
H        -11.45001        8.23226       -5.61094
H        -12.64466        6.33503       -7.09952
H        -12.35292        4.17649       -8.17024
H        -10.32189        1.51432       -7.53394
H        -10.43545        3.41507       -9.95347
H        -11.02523        0.44185       -9.78753
H         -9.00899        3.93647      -14.53188
H        -10.62064       -0.72176      -15.44906
H         -8.83180        4.13530      -17.39729
