82

C         10.90144      -13.06173       -9.44272
C         10.53602      -13.70424       -8.33129
C         10.96823      -15.02492       -7.96472
C         10.50024      -15.42209       -6.77493
C          9.66652      -14.43469       -6.10352
S          9.47330      -13.01483       -7.13526
C          9.14966      -14.55977       -4.86482
C          9.34832      -15.70122       -3.98684
C          8.84637      -15.53905       -2.75825
C          8.18790      -14.27151       -2.57104
S          8.17319      -13.33433       -4.04421
C          7.66622      -13.86482       -1.40495
N          6.97645      -12.70404       -1.12944
C          6.50330      -12.25880        0.07158
S          7.12690      -12.81498        1.58648
C          6.12831      -11.77661        2.46058
N          6.23760      -11.72664        3.88644
O          6.15869      -10.60457        4.40304
O          6.37138      -12.79790        4.49139
C          5.29825      -11.02055        1.66949
C          5.49969      -11.31109        0.27874
C          4.79306      -10.67853       -0.80384
C          3.54294      -10.17950       -0.75989
C          2.95485       -9.44594       -1.84858
S          3.99573       -8.48573       -2.87682
C          2.70551       -7.66557       -3.61155
C          1.50270       -8.11043       -3.13711
C          1.62213       -9.23048       -2.21035
C          0.48095       -9.92734       -1.71909
C         -0.72662       -9.26138       -2.09819
C         -0.82254       -8.12981       -2.96404
C          0.29854       -7.53916       -3.54951
O          0.22217       -6.48215       -4.40520
N          0.46525      -11.13477       -0.99880
C         -0.52715      -12.07342       -0.93186
S         -0.65465      -12.97684        0.54336
C         -2.00532      -13.82241       -0.01082
N         -2.66674      -14.77070        0.83162
O         -3.89994      -14.80236        0.75752
O         -1.95992      -15.50412        1.53474
C         -2.35346      -13.50351       -1.30006
C         -1.44837      -12.54736       -1.87290
C         -1.46750      -12.17385       -3.26753
C         -2.27988      -12.68605       -4.20857
C         -2.24968      -12.28469       -5.60279
C         -2.75312      -12.98586       -6.63185
C         -2.74077      -12.52867       -8.00017
C         -3.26000      -13.40818       -8.86759
C         -3.71457      -14.64789       -8.25799
S         -3.45925      -14.58176       -6.51520
C         -4.25168      -15.70055       -8.90625
C         -4.51767      -15.77506      -10.33310
C         -5.05479      -16.93628      -10.73105
C         -5.24329      -17.87328       -9.65487
S         -4.73891      -17.21040       -8.12637
C         -5.74044      -19.10562       -9.78528
H         11.57410      -13.51416      -10.16401
H         10.54542      -12.05988       -9.66036
H         11.61331      -15.62635       -8.59077
H         10.73981      -16.38609       -6.35011
H          9.86997      -16.59771       -4.28513
H          8.91731      -16.28013       -1.97392
H          7.76266      -14.52275       -0.54460
H          6.77234      -12.17639       -1.97705
H          4.60235      -10.28973        2.06566
H          5.35049      -10.59603       -1.73349
H          2.95829      -10.26051        0.15227
H          2.89222       -6.89088       -4.34356
H         -1.67118       -9.64965       -1.70970
H         -1.81606       -7.74138       -3.17827
H         -0.70614       -6.20269       -4.47065
H          1.37679      -11.44823       -0.68894
H         -3.18160      -13.98060       -1.81132
H         -0.71859      -11.45947       -3.59946
H         -3.01152      -13.44560       -3.94971
H         -1.78216      -11.32244       -5.80645
H         -2.34842      -11.56313       -8.28882
H         -3.31882      -13.21448       -9.92868
H         -4.31571      -14.96391      -11.01698
H         -5.32508      -17.15943      -11.75361
H         -6.04970      -19.49352      -10.74965
H         -5.85042      -19.76449       -8.92941
