81

C          7.46658       -7.25055        6.16118
C          8.01482       -8.11183        5.30143
C          9.36228       -8.61354        5.35161
C          9.71287       -9.30490        4.25610
C          8.65483       -9.40693        3.26417
S          7.15534       -8.72976        3.92379
C          8.77533       -9.83897        1.99240
C          9.99094      -10.22571        1.29641
C          9.87051      -10.19479       -0.04291
C          8.55302       -9.75817       -0.48484
S          7.44286       -9.87460        0.85702
C          8.29417       -9.28607       -1.71790
C          7.09085       -8.64242       -2.17603
S          6.06408       -7.72172       -1.11026
C          4.94373       -7.42768       -2.36914
C          5.42776       -7.82312       -3.57409
C          6.67038       -8.51081       -3.49786
N          4.53330       -7.42960       -4.53767
C          3.44835       -6.86834       -3.91053
C          3.65212       -6.86503       -2.55022
C          2.40973       -6.40999       -4.73738
C          1.26043       -7.09099       -4.83481
N          0.21573       -6.86588       -5.70954
C          0.27962       -6.34498       -6.97158
S          1.70436       -6.53270       -7.95236
C          1.07290       -5.57402       -9.17683
N          1.90096       -5.24247      -10.29066
O          1.96596       -4.04267      -10.58606
O          2.46905       -6.17226      -10.87710
C         -0.21474       -5.16671       -8.94525
C         -0.70717       -5.66630       -7.68856
C         -2.04583       -5.37487       -7.24540
C         -2.84483       -6.17750       -6.52516
C         -4.21807       -5.89776       -6.15729
C         -4.73526       -4.81285       -5.54307
C         -3.93587       -3.58583       -5.16130
C         -6.20441       -4.68006       -5.16275
N         -6.79074       -5.95117       -4.75884
C         -7.80803       -6.09881       -3.83422
C         -8.62409       -5.17389       -3.30513
C         -9.54871       -5.48669       -2.25980
S        -10.88075       -4.40848       -1.95243
C        -11.40935       -5.38490       -0.62372
C        -10.61098       -6.46962       -0.45562
C         -9.53002       -6.54869       -1.36767
N        -11.08348       -7.20330        0.59810
C        -12.17714       -6.56881        1.13311
C        -12.42167       -5.42293        0.38436
C        -12.76533       -7.18897        2.25808
C        -13.82887       -6.68710        2.89373
H          8.01994       -6.85268        7.00373
H          6.44898       -6.89408        6.02633
H         10.02062       -8.42431        6.18775
H         10.69350       -9.73544        4.11688
H         10.91585      -10.45160        1.80475
H         10.68425      -10.38812       -0.72911
H          9.09151       -9.34130       -2.45630
H          7.20622       -8.90993       -4.35020
H          4.67049       -7.56948       -5.53095
H          2.98962       -6.48534       -1.78484
H          2.58938       -5.52354       -5.33765
H          1.06598       -7.94159       -4.18282
H         -0.68956       -7.01745       -5.27538
H         -0.78359       -4.55680       -9.63791
H         -2.45663       -4.42505       -7.58626
H         -2.51722       -7.17896       -6.25745
H         -4.88106       -6.72939       -6.40008
H         -2.85643       -3.71324       -5.26408
H         -4.11778       -3.31880       -4.11465
H         -4.24046       -2.74021       -5.78736
H         -6.76529       -4.25746       -6.00373
H         -6.28673       -3.97617       -4.32604
H         -6.14447       -6.73461       -4.74127
H         -7.89005       -7.14161       -3.52968
H         -8.56509       -4.14418       -3.64343
H         -8.77540       -7.32351       -1.35110
H        -10.65602       -8.06617        0.90697
H        -13.20940       -4.69936        0.53785
H        -12.33504       -8.11541        2.63569
H        -14.32252       -5.77081        2.59387
H        -14.23221       -7.20854        3.75747
