144

C          7.53593        3.30033        9.24944
S          8.17823        4.72355        8.58011
C          6.92028        4.85655        7.40455
C          6.01126        3.81072        7.55935
C          6.38476        2.89687        8.61190
C          5.58309        1.66082        8.93642
C          6.19600        0.44748        8.26730
C          6.19180       -0.78761        8.78664
C          4.11723        1.85813        8.49893
C          4.00309        2.32004        7.04164
C          4.74352        3.63339        6.76298
C          6.86696        5.91677        6.44087
C          7.77466        6.89992        6.34992
C          7.67903        7.95610        5.34218
C          8.35322        7.81680        4.12257
C          8.34839        8.88384        3.23290
C          7.62602       10.06300        3.53061
C          6.91997       10.18561        4.71723
C          6.95636        9.12788        5.62855
C          7.78861       11.00962        2.45241
C          8.61523       10.44541        1.46264
C          9.05261        9.02069        1.87414
C          8.57532        7.96798        0.84308
C          7.06484        7.87611        0.62991
C         10.60494        9.03740        2.01744
C         11.28967        7.72735        2.39280
C          8.96532       11.16866        0.32672
C          8.50358       12.48818        0.18706
C          7.64564       13.02616        1.16753
C          7.28807       12.29184        2.30355
C          8.85084       13.32494       -0.97491
C         10.02104       13.23638       -1.62193
C         10.34543       14.00737       -2.80824
C         11.27390       13.66542       -3.71621
C         11.51730       14.37417       -4.95123
C         12.25259       13.67525       -5.83032
C         12.63602       12.35758       -5.34930
S         12.24927       12.21942       -3.63741
C         13.10136       11.33201       -6.08707
C         13.32200       11.33050       -7.52141
C         13.47234       10.10240       -8.03951
C         13.39036        9.05042       -7.05127
S         13.37491        9.71249       -5.44045
C         13.28313        7.74720       -7.34533
C         13.10769        6.66815       -6.36733
C         11.82639        6.35702       -5.88695
C         11.69394        5.30039       -4.99852
C         12.81572        4.55194       -4.58248
C         14.08618        4.87680       -5.03043
C         14.22856        5.94174       -5.92447
C         12.38240        3.48263       -3.70806
C         10.98138        3.55067       -3.55597
C         10.42583        4.75878       -4.32215
C          9.33841        4.34913       -5.35105
C          9.77198        3.34100       -6.41231
C          9.82090        5.81159       -3.34965
C         10.77786        6.38605       -2.30595
C         10.30234        2.59410       -2.81134
C         11.02888        1.55738       -2.19818
C         12.43136        1.52349       -2.34335
C         13.11156        2.48540       -3.09625
C         10.28201        0.53904       -1.43590
C         10.80904       -0.37606       -0.60649
C          9.99953       -1.28364        0.14293
S         10.57739       -2.89096        0.31873
C          9.19822       -3.41927        1.19202
C          8.30012       -2.37341        1.35384
C          8.79719       -1.11286        0.82582
C          8.00161        0.18567        0.96033
C          8.81085        1.27589        1.63399
C          9.08739        2.47071        1.09222
C          6.67273        0.01008        1.72900
C          6.02341       -1.34769        1.46816
C          6.93426       -2.46625        1.97492
C          9.15732       -4.79356        1.57391
C          8.57891       -5.22317        2.70190
H          8.03844        2.81667       10.07604
H          5.59469        1.51305       10.02515
H          6.67954        0.60378        7.30355
H          5.72120       -1.00513        9.73998
H          6.65478       -1.61254        8.25334
H          3.64379        2.60796        9.14689
H          3.55225        0.92741        8.63295
H          2.94576        2.44330        6.77809
H          4.39260        1.53711        6.37968
H          4.07616        4.47240        6.99718
H          4.96596        3.68796        5.69045
H          6.03700        5.90944        5.73765
H          8.63432        6.98282        7.00734
H          8.88478        6.89886        3.89521
H          6.36618       11.08786        4.95357
H          6.43160        9.22622        6.57615
H          8.92036        6.96893        1.13428
H          9.03480        8.18742       -0.12740
H          6.55799        7.50001        1.52371
H          6.84921        7.17790       -0.18625
H          6.62734        8.84144        0.36065
H         10.89966        9.79451        2.75715
H         11.05048        9.35955        1.06633
H         10.96407        7.35204        3.36395
H         12.37082        7.88946        2.46628
H         11.12876        6.95202        1.63903
H          9.59764       10.71260       -0.42950
H          7.26242       14.03790        1.05958
H          6.64237       12.73422        3.05646
H          8.08659       14.02445       -1.30406
H         10.77666       12.53462       -1.27325
H          9.73696       14.89159       -2.98508
H         11.10016       15.35067       -5.15465
H         12.49017       14.03604       -6.82080
H         13.31561       12.22739       -8.12363
H         13.59817        9.90163       -9.09436
H         13.27411        7.41503       -8.37950
H         10.95969        6.92841       -6.20365
H         14.95620        4.31907       -4.70373
H         15.22279        6.20425       -6.27896
H          8.97138        5.24386       -5.87149
H          8.47251        3.92996       -4.82157
H         10.58016        3.73398       -7.03584
H          8.92811        3.11576       -7.07316
H         10.10212        2.39876       -5.96628
H          8.96619        5.37211       -2.81814
H          9.42052        6.65436       -3.92922
H         11.16608        5.61110       -1.63914
H         10.25150        7.11863       -1.68911
H         11.62166        6.90579       -2.76931
H          9.22153        2.65272       -2.71434
H         13.02131        0.73928       -1.87923
H         14.18986        2.42909       -3.19941
H          9.20619        0.58348       -1.57195
H         11.88342       -0.47338       -0.48999
H          7.72188        0.49691       -0.05345
H          9.19926        1.05343        2.62677
H          8.74287        2.74293        0.10016
H          9.69599        3.19624        1.62325
H          5.97934        0.80662        1.42879
H          6.82433        0.12651        2.81059
H          5.83573       -1.46920        0.39347
H          5.05416       -1.40253        1.97536
H          6.46913       -3.42912        1.73733
H          7.03035       -2.39863        3.06547
H          9.65815       -5.52005        0.93647
H          8.10440       -4.55817        3.41360
H          8.59472       -6.27973        2.95196
