84

C         -3.95596       -1.85275        1.58820
C         -2.64081       -2.02316        1.86299
C         -2.04329       -3.30303        2.07154
N         -1.55024       -4.33884        2.25085
C         -1.71176       -0.94727        1.97058
N         -0.94641       -0.07978        2.05522
C         -4.97092       -2.94581        1.37988
C         -6.18258       -2.36563        0.99805
C         -7.34512       -3.07742        0.71290
C         -7.31114       -4.47971        0.85749
C         -6.10811       -5.08138        1.25300
C         -4.92471       -4.33345        1.50431
S         -6.29312       -6.79573        1.39456
C         -7.92485       -6.72107        0.96798
C         -8.35441       -5.45256        0.68529
Br        -9.04026       -8.22470        0.89864
C         -6.09036       -0.90372        0.99667
O         -7.02259       -0.14963        0.80662
C         -4.67369       -0.56497        1.36764
C         -4.27860        0.71458        1.48719
C         -5.08149        1.87927        1.13912
N         -5.02277        2.37825       -0.11777
N         -5.72976        3.56262       -0.51669
C         -6.49182        4.31857        0.32284
C         -6.57298        3.82704        1.64228
C         -5.85703        2.61607        2.05160
N         -6.08450        2.41808        3.35965
O         -6.93136        3.43761        3.75545
N         -7.23074        4.29828        2.71415
C         -7.22442        5.49556       -0.15325
C         -6.85450        6.30638       -1.16006
C         -7.67375        7.35763       -1.72556
C         -7.17537        7.88172       -2.85912
C         -5.89949        7.31118       -3.25838
S         -5.32273        6.23206       -1.98863
C         -5.25305        7.46268       -4.43160
C         -5.69666        8.18942       -5.60713
C         -5.02531        7.85905       -6.72580
C         -3.99858        6.85259       -6.51035
S         -3.73986        6.63908       -4.80111
C         -3.41636        6.11849       -7.47715
C         -2.48814        4.99161       -7.30093
N         -1.70070        4.84660       -6.19751
N         -0.84629        3.70909       -5.95179
C         -0.73941        2.66586       -6.81207
C         -1.52223        2.76964       -7.97548
C         -2.37887        3.93073       -8.23047
N         -2.97622        3.74070       -9.41878
O         -2.52242        2.52127       -9.88913
N         -1.65103        1.91846       -9.00401
C          0.10385        1.51348       -6.52149
C          1.24028        1.49327       -5.80830
C          2.04160        2.53195       -5.14902
C          2.31672        3.76872       -5.63184
C          3.03805        4.74777       -4.89939
N          3.60414        5.55724       -4.28890
C          1.99317        4.14047       -6.97097
N          1.77798        4.40284       -8.08193
C          2.77229        1.86119       -4.03158
C          2.66221        0.47622       -4.20942
C          1.75152        0.16906       -5.32787
O          1.44701       -0.93513       -5.72753
C          3.32890       -0.46258       -3.42828
C          4.18406        0.01917       -2.40966
C          4.26981        1.40493       -2.20383
C          3.55261        2.34259       -2.98846
S          5.35987        1.77972       -0.91664
C          5.73480        0.15305       -0.67591
C          5.04307       -0.69306       -1.50146
Br         6.98143       -0.42939        0.59516
H         -8.25464       -2.56007        0.41876
H         -4.03995       -4.87863        1.80885
H         -9.36854       -5.20911        0.39112
H         -3.28368        1.00629        1.79412
H         -8.17527        5.66431        0.34591
H         -8.62188        7.65170       -1.29568
H         -7.68116        8.64485       -3.43343
H         -6.52533        8.88401       -5.59166
H         -5.25652        8.25894       -7.70431
H         -3.70590        6.29886       -8.51019
H         -0.30441        0.56985       -6.88417
H          3.21600       -1.52687       -3.61831
H          3.66392        3.39752       -2.76666
H          5.15037       -1.77103       -1.48468
