98

C          3.86295       -4.55969       -1.42513
C          4.04173       -4.50235        0.05120
C          4.24205       -3.33833        0.78956
C          4.15380       -3.34726        2.18431
C          4.04578       -4.54159        2.87476
C          4.07042       -5.72901        2.16971
C          4.05585       -5.70732        0.77482
F          4.06570       -6.88100        0.12215
F          4.10155       -6.89806        2.82551
F          3.94875       -4.54632        4.21103
F          4.14148       -2.18881        2.85631
F          4.49540       -2.17468        0.17321
C          3.25498       -3.79374       -2.36567
C          3.29335       -4.38219       -3.77521
C          3.01861       -5.73585       -4.05753
C          2.98389       -6.22234       -5.36955
C          3.19303       -5.36701       -6.43793
C          3.45800       -4.03030       -6.20042
C          3.51690       -3.55314       -4.89161
F          3.77308       -2.24742       -4.71234
F          3.63462       -3.18492       -7.22530
F          3.13342       -5.82691       -7.69689
F          2.74505       -7.52047       -5.59527
F          2.76938       -6.60540       -3.06653
N          2.61600       -2.54733       -2.35018
C          2.21254       -1.63035       -1.42305
S          1.53188       -1.97160        0.13387
C          1.95532       -0.41774        0.67024
N          2.06947       -0.10171        2.05577
O          1.16403       -0.48849        2.81096
O          3.05325        0.57262        2.38398
C          2.16586        0.45156       -0.37044
C          2.14503       -0.24200       -1.61513
C          2.15078        0.49860       -2.84816
C          1.62235        0.09967       -4.01557
C          1.35346        1.03108       -5.09842
C          0.17761        1.07700       -5.74314
C         -0.20287        2.08691       -6.71214
C         -1.52509        2.12141       -6.94638
C         -2.27783        1.16267       -6.15165
S         -1.17254        0.03359       -5.38590
C         -3.60519        1.16376       -5.93063
C         -4.56347        2.09387       -6.49492
C         -5.80755        1.94068       -6.02393
C         -5.92097        0.89680       -5.03189
S         -4.40948        0.07855       -4.78603
C         -7.02389        0.60279       -4.33238
N         -8.29225        1.08629       -4.54788
C         -8.98361        1.97296       -3.78230
S        -10.31059        2.74878       -4.57042
C        -10.63839        3.69592       -3.21834
N        -11.70012        4.64756       -3.28210
O        -12.43543        4.71644       -2.28923
O        -11.78345        5.34894       -4.29959
C         -9.82347        3.42493       -2.14629
C         -8.83330        2.43954       -2.47888
C         -7.79298        2.04427       -1.56914
C         -7.93281        1.07855       -0.64600
C         -6.85803        0.57219        0.20653
C         -6.12178       -0.69215       -0.14773
C         -6.78430       -1.77065       -0.75974
C         -6.12249       -2.96228       -1.06015
C         -4.78389       -3.11828       -0.74332
C         -4.09797       -2.07509       -0.14748
C         -4.75088       -0.87409        0.12869
F         -4.02988        0.11254        0.68588
F         -2.80624       -2.22206        0.17940
F         -4.15884       -4.27431       -1.00464
F         -6.79210       -3.96584       -1.64449
F         -8.09033       -1.68875       -1.05825
C         -6.53002        1.15684        1.38032
C         -7.07513        2.34736        2.04751
C         -7.98881        2.19181        3.09718
C         -8.34546        3.27062        3.90208
C         -7.79583        4.52225        3.66854
C         -6.90487        4.70057        2.61872
C         -6.54755        3.62116        1.81157
F         -5.64018        3.80454        0.84024
F         -6.35449        5.90461        2.40812
F         -8.10432        5.55096        4.47066
F         -9.18666        3.08857        4.92994
F         -8.48264        0.97654        3.37866
H          4.31768       -5.49059       -1.77429
H          2.82944       -2.07252       -3.22888
H          2.30287        1.51795       -0.24200
H          2.42643        1.55037       -2.76475
H          1.22095       -0.90598       -4.13234
H          2.10787        1.79124       -5.29730
H          0.50465        2.77286       -7.15729
H         -1.98950        2.83781       -7.60840
H         -4.29789        2.86273       -7.20633
H         -6.63427        2.57933       -6.30204
H         -7.00385       -0.13891       -3.53708
H         -8.47845        1.20410       -5.54500
H         -9.90317        3.93147       -1.19100
H         -6.83604        2.55344       -1.67356
H         -8.87522        0.53459       -0.57976
H         -5.76819        0.70328        2.01654
