22

C          0.55052        1.72510        0.00071
C          1.86234        1.21346        0.00136
C          2.10927       -0.16532        0.00205
C          1.04458       -1.05601        0.00233
C         -0.23885       -0.52487        0.00184
C         -0.53077        0.85152        0.00083
C         -2.02613        1.03317        0.00066
C         -2.71773        2.20845        0.00002
C         -1.98204        3.53854       -0.00094
N         -1.37172        4.64197       -0.00173
C         -4.23747        2.18052        0.00099
N         -5.49822        2.15736        0.00180
C         -2.59595       -0.33726        0.00190
C         -1.46598       -1.31985        0.00229
O         -1.52755       -2.53230        0.00307
C         -3.83308       -0.84874        0.00128
H          0.44882        2.80329        0.00002
H          2.70589        1.90270        0.00094
H          3.13153       -0.53789        0.00226
H          1.20472       -2.13039        0.00308
H         -4.75230       -0.28233        0.00064
H         -3.97888       -1.92866        0.00216
