105

C         -2.34203       -2.56299        1.06152
C         -2.44146       -3.49246        0.08320
C         -1.58978       -4.62989        0.01319
N         -0.90578       -5.56433       -0.03430
C         -3.45246       -3.44277       -0.92630
N         -4.26815       -3.39611       -1.74596
C         -1.39893       -2.59961        2.23012
C         -1.88298       -1.71908        3.19767
C         -1.27113       -1.44880        4.41250
C         -0.10063       -2.16636        4.71789
C          0.39457       -3.08039        3.77394
C         -0.22679       -3.29457        2.51101
S          1.80808       -3.87231        4.38029
C          1.74069       -3.02447        5.83934
C          0.70442       -2.13199        5.90367
Br         2.95777       -3.28344        7.23909
C         -3.14552       -1.13407        2.77888
O         -3.94519       -0.61791        3.52694
C         -3.27123       -1.42739        1.31328
C         -3.99579       -0.68337        0.45816
C         -4.74020        0.48649        0.81465
C         -4.48547        1.48880        1.75792
C         -5.48713        2.47519        1.77039
C         -6.43422        2.22962        0.80849
S         -6.20288        0.84486       -0.07385
C         -7.38491        3.26572        0.84517
C         -7.05493        4.15632        1.84027
C         -5.82408        3.70217        2.48890
C         -5.15523        4.27437        3.50963
C         -3.95088        3.71274        4.01789
N         -2.96095        3.27138        4.42514
C         -5.60848        5.47083        4.12087
N         -5.97661        6.45071        4.62632
C         -7.99298        5.21006        1.92417
C         -9.00146        5.06787        0.96314
S         -8.74113        3.64790       -0.01566
C        -10.14069        5.93832        0.73529
C        -10.48070        7.09183        1.44795
C        -11.61450        7.73855        0.89040
C        -12.16132        6.97930       -0.11028
S        -11.30920        5.62362       -0.51938
C        -13.38746        7.55105       -0.48411
C        -13.61737        8.68494        0.26704
C        -12.43307        8.96672        1.07131
C        -11.97560       10.11637        1.63207
C        -10.49021       10.02068        1.94007
N         -9.25795        9.94131        2.19559
C        -12.66032       11.47314        1.60514
N        -13.22836       12.59869        1.58279
C        -14.93467        9.14382        0.07666
C        -15.64813        8.32612       -0.81668
S        -14.60218        7.11033       -1.51639
C        -17.02115        8.26784       -1.21794
C        -18.06739        8.59149       -0.44326
C        -19.44715        8.33809       -0.80626
C        -20.28323        8.37044        0.24424
C        -19.60476        8.63145        1.50488
S        -17.98614        9.21526        1.18071
C        -20.05024        8.35834        2.74393
C        -21.32010        7.74742        3.08247
C        -21.40608        7.35592        4.36077
C        -20.21786        7.63183        5.13573
S        -19.06777        8.55132        4.20211
C        -20.03228        7.23682        6.40382
C        -18.83839        7.47372        7.19590
C        -18.80282        8.09115        8.38749
C        -17.64535        8.46616        9.23031
C        -16.45024        7.82829        9.32117
C        -15.44656        8.19168       10.26694
N        -14.62707        8.48614       11.03199
C        -16.13311        6.68066        8.54211
N        -15.86741        5.73761        7.91348
C        -18.11875        9.54612       10.14413
C        -19.51542        9.60594       10.07292
C        -20.02009        8.71198        9.02073
O        -21.19010        8.55044        8.74190
C        -20.28647       10.43346       10.87500
C        -19.63089       11.27554       11.78083
C        -18.20915       11.29938       11.81551
C        -17.46344       10.43645       10.98543
C        -17.56475       12.18370       12.69374
C        -18.30083       13.00550       13.54860
C        -19.69163       12.95722       13.53622
C        -20.35380       12.10438       12.65193
H         -1.69856       -0.72561        5.10242
H          0.22459       -4.00472        1.82601
H          0.50125       -1.49730        6.75698
H         -4.01474       -0.92352       -0.60130
H         -3.62221        1.47550        2.41007
H         -7.96064        6.03166        2.63053
H         -9.90573        7.43141        2.30074
H        -15.38087        9.96627        0.61900
H        -17.22881        7.79160       -2.17627
H        -19.75434        8.09362       -1.81464
H        -21.34138        8.16527        0.17026
H        -22.10829        7.58946        2.36096
H        -22.26860        6.85766        4.78148
H        -20.82417        6.68394        6.90741
H        -17.92720        7.13745        6.70646
H        -21.36933       10.41863       10.78836
H        -16.38028       10.49188       11.02808
H        -16.47795       12.23619       12.72769
H        -17.78590       13.67956       14.22888
H        -20.26276       13.58734       14.21363
H        -21.44192       12.08892       12.65445
