105

C          1.43038        4.23734        3.73912
C          2.18266        5.23867        3.23194
C          2.49192        6.40503        3.98441
N          2.71080        7.36519        4.59774
C          2.75450        5.14518        1.92840
N          3.24006        5.05009        0.87865
C          1.00477        4.06041        5.13830
C          0.98668        2.67946        5.39569
C          0.68098        2.16000        6.63790
C          0.26677        3.05505        7.63499
C          0.14388        4.44775        7.34439
C          0.54286        4.94905        6.09324
C         -0.39950        5.30259        8.31356
C         -0.77503        4.81159        9.56416
C         -0.59551        3.46490        9.86849
C         -0.08145        2.59097        8.90963
C          1.12372        1.92605        4.12123
O          1.15081        0.72463        3.97108
C          1.06775        2.99017        3.06432
C          0.33103        2.77510        1.95644
C         -0.29273        3.82710        1.20461
C         -0.58515        3.89344       -0.16545
C         -1.18026        5.13230       -0.51278
C         -1.30669        5.94125        0.58797
S         -0.97125        5.22270        2.02837
C         -1.77338        7.20266        0.19640
C         -1.99872        7.19194       -1.15677
C         -1.68305        5.86083       -1.68234
C         -1.87542        5.39581       -2.93032
C         -2.43708        6.20643       -3.95384
N         -2.90465        6.86905       -4.78352
C         -1.57214        4.04990       -3.27033
N         -1.33609        2.94664       -3.53274
C         -2.45072        8.45133       -1.60006
C         -2.51036        9.37063       -0.54523
S         -2.03205        8.64581        0.95905
C         -2.90109       10.76198       -0.58988
C         -2.94881       11.67957        0.46600
C         -3.38608       12.94349        0.02494
C         -3.64468       12.93279       -1.32473
S         -3.38953       11.48925       -2.08960
C         -4.07972       14.20801       -1.71606
C         -4.09798       15.03217       -0.61517
C         -3.65687       14.27910        0.55868
C         -3.53298       14.71232        1.82866
C         -3.83940       16.05072        2.19588
N         -4.09294       17.14309        2.49871
C         -3.09425       13.85080        2.87119
N         -2.73898       13.14199        3.71905
C         -4.53593       16.32575       -0.95694
C         -4.83417       16.40843       -2.31894
S         -4.55765       14.90463       -3.13853
C         -5.31281       17.55545       -3.05079
C         -6.12915       17.53828       -4.18567
C         -6.38752       18.86380       -4.60407
C         -5.76234       19.74335       -3.79661
S         -4.85577       19.16016       -2.53097
C         -6.02746       20.99306       -4.20925
C         -6.83254       20.94316       -5.28804
N         -7.04648       19.61713       -5.53240
C         -7.13830       22.24715       -5.73672
C         -6.51566       23.19297       -4.91325
S         -5.55097       22.47981       -3.63530
C         -6.56288       24.61358       -4.97971
C         -7.65141       25.22974       -5.45957
C         -7.75312       26.66569       -5.57568
C         -8.81397       27.34180       -6.04262
C         -8.94753       28.78626       -6.32403
C         -8.33808       29.80351       -5.66631
C         -8.60529       31.17153       -5.95246
N         -8.81792       32.28609       -6.18871
C         -7.42359       29.58949       -4.59296
N         -6.67298       29.41130       -3.72608
C        -10.01989       28.90941       -7.35782
C        -10.67246       27.67980       -7.46673
C        -10.04419       26.68045       -6.59915
O        -10.47010       25.55900       -6.41973
C        -11.72028       27.41913       -8.34217
C        -12.13520       28.46653       -9.19078
C        -11.47656       29.70314       -9.10470
C        -10.41199       29.94426       -8.19730
S        -12.13135       30.83295      -10.23662
C        -13.24604       29.70617      -10.81558
C        -13.15820       28.48718      -10.19927
Br       -14.47881       30.08866      -12.17265
H          0.70053        1.08672        6.80134
H          0.43438        6.00813        5.87281
H         -0.54885        6.35978        8.10055
H         -1.20502        5.48334       10.30311
H         -0.87024        3.08935       10.85090
H          0.03372        1.53969        9.16526
H          0.06011        1.75514        1.68515
H         -0.33069        3.09329       -0.85132
H         -2.71119        8.70582       -2.62041
H         -2.68028       11.42606        1.48448
H         -4.64984       17.16482       -0.28090
H         -6.51468       16.64532       -4.66092
H         -7.61509       19.25003       -6.28408
H         -7.76307       22.48744       -6.58751
H         -5.71146       25.18163       -4.61380
H         -8.50181       24.63142       -5.77414
H         -6.84151       27.18813       -5.29665
H        -12.17678       26.43359       -8.38510
H         -9.92819       30.91407       -8.20879
H        -13.78590       27.63864      -10.44482
