120

C         -0.72976       -0.18138      -12.30162
S         -2.38859       -0.41188      -11.87235
C          0.12155       -0.23621      -11.20530
C         -0.60179       -0.46590      -10.01596
C         -0.37070       -0.61413       -8.57342
C          0.80701       -0.72412       -7.90872
C          0.93779       -0.88799       -6.40647
N          0.47170       -2.16530       -5.88568
C          2.14904       -0.62308       -8.59552
N          2.62687       -1.93548       -9.00579
C         -1.95468       -0.56748      -10.27430
C         -2.64017       -0.74310       -9.05768
S         -4.22177       -0.94478       -8.59066
C         -1.72457       -0.72457       -8.03135
C         -2.36888       -0.77742       -6.78582
C         -3.74360       -0.98246       -6.91509
C         -4.73505       -1.15305       -5.90810
C         -4.38456       -1.27427       -4.61726
C         -5.31881       -1.30514       -3.51261
C         -6.17642       -0.28013       -3.35605
C         -7.06651       -0.20476       -2.23575
C         -7.07166       -1.22065       -1.17548
C         -6.28445       -2.29458       -1.15394
S         -5.12862       -2.65148       -2.40418
C         -8.04622       -0.81492       -0.24447
C         -8.62042        0.36174       -0.65910
C         -9.65751        0.79387        0.18378
C         -9.78903       -0.07688        1.25608
S         -8.67777       -1.40509        1.18495
C         -7.97865        0.75142       -1.89845
C         -8.27092        1.94554       -2.65297
C         -8.77785        3.06231       -2.12129
C         -9.05818        4.19139       -2.92241
O         -8.32631        4.47622       -4.03323
C         -8.80065        5.60112       -4.64915
C         -9.85553        6.07443       -3.87091
C        -10.03638        5.16392       -2.78806
C        -11.09696        5.24514       -1.75763
F        -11.08510        4.18469       -0.90327
F        -10.97586        6.35353       -0.98125
F        -12.34320        5.27235       -2.29860
O        -10.65715        7.16331       -4.00449
C        -10.42067        8.01904       -5.10456
C         -8.23537        6.00350       -5.88544
C         -6.95311        5.73502       -6.19454
C         -6.30977        6.05127       -7.47049
C         -6.99741        6.67143       -8.44400
C         -6.39448        7.18325       -9.63421
C         -5.00149        6.91233       -9.97775
C         -4.16567        6.22645       -9.19796
S         -4.61512        5.59097       -7.63117
C         -4.77094        7.56727      -11.20436
C         -5.91322        8.22536      -11.60031
C         -5.76366        8.93746      -12.79975
C         -4.46556        8.78998      -13.26970
S         -3.48389        7.78541      -12.24488
C         -6.92074        7.99227      -10.59814
C         -8.26364        8.53882      -10.65187
C         -8.93359        8.96176       -9.56805
C        -10.26564        9.43434       -9.62574
S        -11.37740        8.94484       -8.38671
C        -10.86776       10.29610      -10.53438
C        -12.16726       10.64985      -10.12037
C        -13.25727       11.53871      -10.51735
C        -13.21028       12.52224      -11.45061
C        -14.39158       13.42843      -11.72126
N        -14.04348       14.78940      -12.12155
C        -11.95799       12.82673      -12.24762
N        -11.89116       12.07303      -13.49302
C        -12.54720        9.93201       -9.01157
C        -13.88101       10.24199       -8.69683
S        -14.97075        9.73563       -7.55443
C        -14.34816       11.16831       -9.60249
C        -15.71869       11.42952       -9.37746
C        -16.19898       10.76247       -8.24444
C        -17.47491       10.78902       -7.61256
C        -18.27391       11.85999       -7.68133
H         -0.46493       -0.01572      -13.33632
H          1.18898       -0.10782      -11.30475
H          0.45215       -0.05087       -5.89201
H          1.99200       -0.81603       -6.11189
H         -0.53358       -2.24992       -6.01377
H          0.86485       -2.92102       -6.44085
H          2.89246       -0.15608       -7.93839
H          2.11072        0.04660       -9.45459
H          2.92078       -2.46260       -8.18503
H          3.46025       -1.82735       -9.58109
H         -1.88226       -0.69321       -5.82528
H         -5.78395       -1.15809       -6.19690
H         -3.34259       -1.31564       -4.30953
H         -6.18432        0.54181       -4.06578
H         -6.34070       -3.00250       -0.33389
H        -10.28409        1.66520        0.04652
H        -10.49058       -0.00799        2.07653
H         -8.04340        1.91165       -3.72922
H         -8.97709        3.13795       -1.05968
H        -11.15738        8.82441       -5.07535
H        -10.58172        7.48151       -6.04165
H         -9.42798        8.47909       -5.05983
H         -8.90287        6.46449       -6.59400
H         -6.31515        5.26995       -5.44250
H         -8.05467        6.85636       -8.34528
H         -3.13765        6.06279       -9.50379
H         -6.52149        9.53210      -13.29208
H         -4.02920        9.22314      -14.15734
H         -8.71685        8.58278      -11.63893
H         -8.47889        8.93532       -8.58185
H        -10.33756       10.67511      -11.39467
H        -15.00562       13.54401      -10.82630
H        -15.01269       12.97649      -12.50169
H        -13.62901       15.28019      -11.33213
H        -14.89298       15.29453      -12.36458
H        -11.05186       12.67209      -11.65494
H        -11.88944       13.89011      -12.49277
H        -11.43935       11.17763      -13.32649
H        -11.29007       12.57757      -14.14304
H        -16.35127       12.06464       -9.98135
H        -17.78745        9.93055       -7.02075
H        -18.00045       12.76344       -8.21585
H        -19.22868       11.86221       -7.16351
