105

C         -2.74473       -4.71013        3.88760
C         -4.04762       -4.29187        4.17281
F         -4.44188       -4.24227        5.45217
C         -4.94009       -3.92907        3.15604
F         -6.17850       -3.52702        3.46886
C         -4.56803       -3.99818        1.82068
C         -3.27610       -4.41750        1.55449
C         -2.34283       -4.74812        2.56121
C         -1.05008       -5.06118        1.89424
C          0.17675       -4.84146        2.42403
C          0.36875       -4.55196        3.80542
N          0.50715       -4.33119        4.93497
C          1.34614       -4.71301        1.62122
N          2.31281       -4.51521        1.00608
C         -1.37152       -5.29488        0.48404
C         -2.70276       -4.66630        0.21966
O         -3.24784       -4.47890       -0.84648
C         -0.89653       -6.14661       -0.43311
C          0.09375       -7.16442       -0.22127
C          1.22238       -7.26659       -0.95633
C          1.91941       -8.47023       -0.52799
C          1.10121       -9.07196        0.50371
C          0.03194       -8.29752        0.70394
F          1.36458      -10.21634        1.14788
C          3.07910       -8.92503       -1.00962
C          3.73060      -10.14618       -0.59790
C          4.86179      -10.28064       -1.31791
C          4.98299       -9.13231       -2.21202
C          3.92536       -8.33773       -2.02236
F          3.69762       -7.17644       -2.64559
C          5.76050      -11.38922       -1.19087
C          5.57677      -12.40377       -0.33070
C          6.47594      -13.49552       -0.25474
S          7.34066      -14.00830       -1.63952
C          8.11619      -15.27580       -0.81160
C          7.69363      -15.34356        0.50674
C          6.74964      -14.30610        0.83452
C          6.13718      -14.18535        2.20597
C          6.85089      -15.05139        3.25096
C          7.19699      -16.45764        2.73741
N          6.00123      -17.24495        2.41353
C          8.13833      -16.35795        1.52713
C          9.02675      -16.06445       -1.56059
C         10.07043      -16.66169       -0.97711
C         11.01639      -17.47455       -1.67599
C         12.28028      -17.64247       -1.23081
C         12.95496      -18.53949       -2.15485
C         11.96652      -18.92271       -3.14153
C         10.81585      -18.30807       -2.85708
F         12.16574      -19.76844       -4.15936
C         14.23763      -18.91020       -2.09086
C         14.91911      -19.79634       -3.01922
C         16.21251      -19.88040       -2.64118
C         16.38968      -19.08413       -1.42555
C         15.22489      -18.51064       -1.11313
F         15.00804      -17.70886       -0.06248
C         17.17461      -20.69143       -3.33799
C         18.48798      -20.42434       -3.34986
C         19.45127      -21.22001       -4.06620
C         19.49852      -21.46962       -5.38024
C         20.39926      -22.58386       -5.81616
O         21.31394      -23.09402       -5.20487
C         19.89581      -23.00709       -7.12875
C         18.84148      -22.17028       -7.54997
C         18.18880      -22.48340       -8.73557
C         18.62742      -23.59070       -9.47298
C         19.69055      -24.38754       -9.03541
C         20.34001      -24.10932       -7.84267
F         20.08241      -25.44055       -9.76430
F         18.00656      -23.88713      -10.62281
C         18.69141      -21.06997       -6.54666
C         18.13183      -19.85718       -6.78217
C         18.30569      -18.73862       -5.90748
N         18.46338      -17.80486       -5.24583
C         17.41886      -19.55654       -7.97820
N         16.83251      -19.32396       -8.95229
H         -2.10526       -4.99262        4.71620
H         -5.26385       -3.74840        1.02794
H         -1.37826       -6.19703       -1.41237
H          1.55034       -6.59738       -1.73716
H         -0.76064       -8.49993        1.40463
H          3.36178      -10.83103        0.14716
H          5.79906       -8.95801       -2.89403
H          6.62523      -11.35797       -1.84915
H          4.73253      -12.41388        0.35199
H          5.08296      -14.48309        2.14559
H          6.15852      -13.14081        2.53962
H          6.23718      -15.11620        4.15690
H          7.78460      -14.55232        3.54562
H          7.72913      -16.99890        3.52830
H          5.56702      -16.87938        1.56459
H          5.31190      -17.15821        3.15706
H          8.24369      -17.34534        1.06191
H          9.12889      -16.05457        1.88989
H          8.88214      -16.13655       -2.63643
H         10.27445      -16.53090        0.07958
H         12.71886      -17.17978       -0.36015
H          9.88655      -18.41379       -3.39171
H         14.46137      -20.27550       -3.86976
H         17.30923      -18.98273       -0.87409
H         16.77659      -21.54468       -3.88552
H         18.89458      -19.58551       -2.78577
H         20.18579      -21.69124       -3.40889
H         17.34852      -21.92307       -9.12833
H         21.14918      -24.73538       -7.48343
