91

C          5.48598       -3.79021       -2.79913
C          5.47923       -3.42014       -4.14931
F          5.50521       -2.11605       -4.46045
C          5.41445       -4.37423       -5.17031
F          5.38364       -3.98118       -6.45036
C          5.34811       -5.72614       -4.87302
C          5.35256       -6.07336       -3.53213
C          5.43768       -5.14148       -2.47880
C          5.39519       -5.88756       -1.18795
C          5.82526       -5.42726        0.00771
C          6.31130       -4.09822        0.19588
N          6.69869       -3.01689        0.33879
C          5.89774       -6.24520        1.17334
N          5.95452       -6.92561        2.10888
C          4.98086       -7.27080       -1.52110
C          5.15140       -7.43023       -3.00626
O          5.09760       -8.43785       -3.67630
C          4.36368       -8.20373       -0.77231
C          3.89959       -9.48826       -1.21457
C          4.69822      -10.61025       -1.14973
F          5.94963      -10.58398       -0.76580
S          3.89778      -12.04203       -1.57496
C          2.46571      -11.18869       -1.86197
F          1.34883      -11.77209       -2.22257
C          2.58204       -9.82614       -1.67993
C          1.44843       -8.97641       -1.89503
C          1.44943       -7.75827       -2.46441
C          0.26878       -6.96070       -2.64067
S         -1.29087       -7.59171       -2.28820
C          0.14656       -5.64724       -3.08821
C          1.23998       -4.82445       -3.64024
O          2.33955       -5.25775       -3.96025
C          0.88494       -3.41572       -3.73911
C          1.68013       -2.34870       -4.10810
N          0.95324       -1.19819       -3.92660
C          1.48311        0.15015       -4.03855
C          1.34242        0.71463       -5.43838
C         -0.31991       -1.51385       -3.53193
C         -0.39512       -2.88669       -3.40797
C         -1.52523       -3.68385       -2.96184
O         -2.59231       -3.18975       -2.63172
C         -1.19683       -5.11565       -2.85304
C         -2.10580       -6.10993       -2.52199
C         -3.52950       -6.03374       -2.42780
C         -4.27937       -6.84338       -1.66137
C         -5.71221       -6.80973       -1.57335
C         -6.34175       -7.08600       -0.37699
F         -5.70008       -7.40213        0.72052
S         -8.02502       -6.95232       -0.44355
C         -7.95672       -6.56131       -2.08890
F         -9.03933       -6.33656       -2.79155
C         -6.67748       -6.51990       -2.61058
C         -6.39817       -6.24479       -4.00158
C         -7.12431       -5.40904       -4.76252
C         -6.88991       -5.09040       -6.15567
C         -7.23289       -3.92424       -6.72888
C         -7.45118       -3.88416       -8.21084
O         -7.08580       -4.68504       -9.04440
C         -8.29347       -2.69645       -8.45307
C         -8.51308       -1.98619       -7.25377
C         -9.29098       -0.83594       -7.29203
C         -9.80741       -0.41683       -8.52135
C         -9.57502       -1.14077       -9.69474
C         -8.81782       -2.30485       -9.67554
F        -10.08015       -0.70562      -10.85626
F        -10.52369        0.71468       -8.56629
C         -7.72582       -2.64597       -6.17652
C         -7.32063       -2.05846       -5.02616
C         -6.21698       -2.55448       -4.28137
N         -5.28660       -2.93653       -3.70697
C         -7.87635       -0.85603       -4.51783
N         -8.35895        0.11119       -4.08775
H          5.50005       -2.99616       -2.06241
H          5.24320       -6.47078       -5.65307
H          4.14933       -8.00544        0.27357
H          0.50445       -9.43113       -1.60140
H          2.38806       -7.33823       -2.80290
H          2.70912       -2.31091       -4.44154
H          2.53628        0.11551       -3.73808
H          0.95216        0.77696       -3.31301
H          1.85460        0.08379       -6.17209
H          1.77729        1.71777       -5.48566
H          0.28963        0.78384       -5.73107
H         -1.06245       -0.74916       -3.33490
H         -4.01219       -5.25919       -3.01786
H         -3.79133       -7.56015       -1.00083
H         -5.51127       -6.70933       -4.43007
H         -7.98982       -4.91898       -4.32066
H         -6.55121       -5.91859       -6.78127
H         -9.51234       -0.22498       -6.42552
H         -8.64115       -2.87176      -10.58270
