97

C         -4.21065       -0.77422       -3.65274
C         -3.68040       -0.80148       -4.90127
C         -2.86781       -1.86646       -5.38836
N         -2.20384       -2.72646       -5.79629
C         -3.91260        0.22013       -5.86929
N         -4.09396        1.04732       -6.66400
C         -4.07632       -1.85992       -2.62121
C         -4.92208       -1.56218       -1.55328
C         -5.06290       -2.34807       -0.41327
C         -4.31504       -3.54043       -0.33909
C         -3.46050       -3.85993       -1.40364
C         -3.31647       -3.02621       -2.54612
S         -2.65393       -5.36285       -1.11741
C         -3.43038       -5.57206        0.36700
C         -4.27416       -4.54345        0.68823
Br        -3.16564       -7.06693        1.46449
C         -5.64690       -0.31202       -1.78382
O         -6.52132        0.10544       -1.05340
C         -5.10910        0.26270       -3.06663
C         -5.38567        1.51966       -3.46307
C         -6.25817        2.39711       -2.75481
C         -7.62108        2.54670       -2.90198
C         -8.18780        3.52290       -2.01990
C         -7.22210        4.11154       -1.20904
S         -5.65342        3.49744       -1.58348
C         -7.57983        5.07069       -0.24592
C         -8.92446        5.46072       -0.06928
C         -9.87406        4.86743       -0.88986
C         -9.51667        3.92932       -1.85646
S        -11.45313        5.40019       -0.52737
C        -10.92892        6.49811        0.68559
C         -9.55300        6.39019        0.84264
C        -11.92309        7.32652        1.41587
C        -11.86387        7.57979        2.80693
C        -12.84496        8.39388        3.49294
N        -12.71897        8.59737        4.82661
C        -11.69083        8.02331        5.50337
C        -10.76703        7.24643        4.85424
N        -10.84942        7.02840        3.51560
C         -9.66486        6.62632        5.52535
N         -8.77483        6.13710        6.08835
C        -11.64877        8.27727        6.91236
N        -11.60729        8.47184        8.05805
C        -13.94253        8.98867        2.82512
C        -14.06337        8.71118        1.43067
C        -13.02528        7.90062        0.71159
N        -13.27475        7.82643       -0.60879
S        -14.70299        8.58383       -0.90915
N        -15.06367        9.08590        0.61290
C        -14.95644        9.84189        3.49410
C        -15.45189        9.78623        4.78633
C        -16.48415       10.74793        5.05724
C        -16.75915       11.52047        3.93707
S        -15.65461       11.18908        2.67804
C        -17.80551       12.44685        3.93164
C        -18.58146       12.66451        5.07912
C        -18.24064       11.96050        6.22775
C        -17.22687       11.00020        6.21873
S        -19.17981       12.46155        7.56334
C        -20.22295       13.42878        6.59077
C        -19.71919       13.51194        5.30593
C        -21.34496       14.10893        7.15061
C        -22.16934       13.59165        8.07517
C        -22.26702       12.27973        8.73076
C        -22.26154       11.06850        8.12702
C        -22.39750        9.84501        8.84197
N        -22.48751        8.85213        9.43138
C        -22.20762       10.93219        6.70676
N        -22.20500       10.80806        5.55247
C        -22.68154       12.54875       10.13219
C        -23.18888       13.85240       10.18819
C        -22.97157       14.54800        8.90350
O        -23.30768       15.67918        8.62526
C        -23.75850       14.40518       11.32705
C        -23.82069       13.59689       12.48634
C        -23.25734       12.31093       12.44772
C        -22.66048       11.77284       11.28289
S        -23.41175       11.51472       13.97298
C        -24.24871       12.81886       14.63904
C        -24.39338       13.87158       13.77558
Br       -24.91351       12.82015       16.38985
H         -5.73572       -2.04809        0.38594
H         -2.62261       -3.33976       -3.31561
H         -4.85383       -4.49890        1.60273
H         -4.96130        1.95528       -4.35867
H         -8.21026        1.95853       -3.59530
H         -6.80812        5.50964        0.38344
H        -10.28703        3.48609       -2.48329
H         -8.99609        6.95084        1.58447
H        -15.12248        9.06470        5.52423
H        -18.02439       13.00559        3.02399
H        -17.00864       10.43857        7.12450
H        -20.16784       14.12566        4.53246
H        -21.46717       15.15163        6.85619
H        -24.14708       15.41970       11.31773
H        -22.22354       10.78081       11.32117
H        -24.89610       14.79662       14.03058
