93

C          0.38537        2.89622       -3.41730
C          1.38778        3.79379       -3.29062
C          1.71900        4.69175       -4.33451
N          1.97261        5.44444       -5.18861
C          2.18124        3.87044       -2.10620
N          2.82974        3.92839       -1.14407
C         -0.42044        2.58836       -4.61339
C         -0.82941        1.24781       -4.51545
C         -1.63150        0.64060       -5.46274
C         -2.13195        1.43749       -6.50185
C         -1.80771        2.82665       -6.56085
C         -0.92589        3.39111       -5.62231
C         -2.41066        3.62790       -7.54043
C         -3.30193        3.07672       -8.46137
C         -3.58666        1.71453       -8.42824
C         -3.00458        0.89938       -7.45662
C         -0.49234        0.71039       -3.17298
O         -0.67022       -0.41441       -2.76039
C         -0.02816        1.91746       -2.41181
C         -0.49154        2.10068       -1.16091
C         -0.70715        3.39828       -0.58562
C         -0.66138        3.78094        0.73455
C         -1.00523        5.16251        0.95227
S         -1.07880        5.72842        2.62543
C          0.63746        5.45903        3.16535
C         -1.33710        5.85417       -0.21553
S         -1.24198        4.72884       -1.51778
C         -1.72711        7.27418       -0.55500
C         -1.28176        8.42653        0.14226
C         -1.64677        9.77410       -0.24029
N         -1.28085       10.80840        0.54615
C         -0.57686       10.59192        1.67680
C         -0.18650        9.32996        2.01471
N         -0.49661        8.26621        1.22725
C          0.53024        9.04394        3.22076
N          1.10365        8.83505        4.20710
C         -0.28298       11.74966        2.46371
N         -0.03183       12.67670        3.11561
C         -2.40098       10.07806       -1.39319
C         -2.92564        8.96079       -2.09352
C         -2.60713        7.54645       -1.66353
N         -3.25408        6.65160       -2.43547
S         -4.13235        7.45848       -3.56656
N         -3.72996        9.00116       -3.17130
C         -2.70367       11.44987       -1.88362
C         -3.80437       11.92995       -2.58115
C         -3.73151       13.32244       -2.87311
S         -4.98788       14.16252       -3.78174
C         -6.07382       14.69146       -2.43743
C         -2.57695       13.90159       -2.39285
S         -1.55039       12.71976       -1.69834
C         -2.12936       15.25061       -2.43973
C         -2.40254       16.14088       -1.47169
C         -2.01073       17.56918       -1.32511
C         -1.27515       18.32245       -2.18268
C         -0.93723       19.68525       -1.93714
N         -0.65289       20.79453       -1.75105
C         -0.75770       17.83584       -3.41943
N         -0.32416       17.45535       -4.42542
C         -2.57065       18.03134       -0.01022
C         -3.23638       16.96291        0.59763
C         -3.20816       15.77597       -0.24978
O         -3.77839       14.74083        0.02848
C         -3.84201       17.02252        1.84486
C         -3.78547       18.22597        2.54628
C         -3.14347       19.34691        1.95620
C         -2.54568       19.23844        0.67895
C         -3.10613       20.55412        2.66947
C         -3.67360       20.65215        3.94143
C         -4.28866       19.54586        4.52021
C         -4.34841       18.33869        3.82533
H         -1.92364       -0.39874       -5.34397
H         -0.71480        4.45674       -5.65550
H         -2.20788        4.69642       -7.58469
H         -3.77648        3.71348       -9.20399
H         -4.27620        1.28665       -9.15181
H         -3.25657       -0.15929       -7.44045
H         -0.87515        1.24510       -0.60433
H         -0.40529        3.08784        1.52769
H          0.75043        5.85657        4.17784
H          1.35115        5.97208        2.51277
H          0.88289        4.39376        3.19555
H         -4.64084       11.31026       -2.87782
H         -6.93002       15.22532       -2.85936
H         -5.55769       15.37716       -1.76371
H         -6.44326       13.83147       -1.87332
H         -1.54287       15.48177       -3.31744
H         -4.33080       16.14218        2.25410
H         -2.06774       20.12425        0.27780
H         -2.62631       21.43293        2.24288
H         -3.62975       21.59392        4.48269
H         -4.72135       19.62145        5.51460
H         -4.83130       17.48416        4.29554
