93

C         -5.60075        0.10512       -1.49141
O         -4.75431       -0.66443       -1.08988
C         -5.62188        1.53399       -1.18031
C         -6.53977        2.20726       -2.00039
C         -6.69124        3.57544       -1.81147
C         -5.92565        4.22495       -0.82575
C         -5.02605        3.51014       -0.02257
C         -4.86260        2.14366       -0.19244
Br        -4.03763        4.40949        1.31302
C         -7.17901        1.20655       -2.91248
C         -7.88998        1.48973       -4.03412
C         -8.18091        2.81787       -4.45233
N         -8.42422        3.90258       -4.79215
C         -8.36135        0.48440       -4.92300
N         -8.77809       -0.33293       -5.64421
C         -6.75720       -0.13875       -2.42048
C         -7.34275       -1.33285       -2.62425
C         -6.98929       -2.57359       -2.00989
C         -6.51121       -2.87200       -0.73129
C         -6.36682       -4.25482       -0.53210
C         -6.76184       -4.96926       -1.63600
S         -7.27145       -4.04704       -2.91660
C         -6.61843       -6.34340       -1.36023
C         -6.10811       -6.49386       -0.09357
C         -5.94057       -5.17306        0.51913
C         -5.53382       -4.87344        1.76305
C         -5.18640       -5.87776        2.69888
N         -4.90586       -6.70572        3.45862
C         -5.46508       -3.53667        2.23436
N         -5.42680       -2.44463        2.63926
C         -5.89524       -7.85526        0.21589
C         -6.27475       -8.69966       -0.83859
S         -6.95919       -7.75794       -2.14487
C         -6.20072      -10.18381       -0.93593
C         -5.99312      -10.91638       -2.13358
C         -5.94187      -12.36362       -2.16537
N         -5.77264      -12.99863       -3.34683
C         -5.68196      -12.27070       -4.47719
C         -5.69922      -10.90297       -4.44601
N         -5.83198      -10.22897       -3.28622
F         -5.58730      -10.19463       -5.57766
F         -5.57787      -12.92385       -5.64227
C         -6.05405      -13.15195       -0.99675
C         -6.24931      -12.45140        0.22976
C         -6.33385      -10.95049        0.25877
N         -6.55272      -10.48004        1.50032
S         -6.59101      -11.76303        2.53324
N         -6.39062      -12.99316        1.45435
C         -5.98471      -14.63467       -0.95296
C         -5.44143      -15.46066        0.03928
C         -5.63794      -16.82410       -0.25210
C         -6.32038      -17.00130       -1.43266
S         -6.72195      -15.59735       -2.21333
C         -6.59864      -18.37453       -1.59840
C         -6.11600      -19.05288       -0.50345
C         -5.40367      -18.12225        0.37003
C         -4.64064      -18.40727        1.44240
C         -4.48172      -19.74357        1.89252
N         -4.38098      -20.85286        2.22225
C         -3.90312      -17.40233        2.12374
N         -3.28567      -16.58133        2.66562
C         -6.50985      -20.40364       -0.51846
C         -7.17649      -20.73300       -1.70310
S         -7.40008      -19.31871       -2.70464
C         -7.72738      -21.97616       -2.13727
C         -7.21886      -23.17943       -1.83072
C         -8.10613      -24.37874       -1.98101
O         -9.10670      -24.48798       -2.65706
C         -7.55958      -25.38603       -1.05171
C         -6.39206      -24.90021       -0.43027
C         -6.02773      -23.61916       -1.09250
C         -4.76429      -23.15170       -1.24141
C         -3.66853      -23.61537       -0.46365
N         -2.77732      -23.97772        0.18717
C         -4.42572      -22.22279       -2.27363
N         -4.12961      -21.50312       -3.13301
C         -5.79606      -25.66259        0.56297
C         -6.33151      -26.92513        0.85776
C         -7.46219      -27.40627        0.17791
C         -8.10818      -26.62775       -0.77678
Br        -8.10937      -29.13998        0.56333
H         -7.38595        4.18227       -2.38285
H         -6.04439        5.29832       -0.68472
H         -4.18540        1.55984        0.42386
H         -8.20631       -1.40863       -3.27664
H         -6.28989       -2.11115        0.00566
H         -5.48133       -8.22367        1.14575
H         -4.97869      -15.07305        0.93922
H         -6.33873      -21.11646        0.27748
H         -8.67405      -21.92795       -2.67835
H         -4.92509      -25.32952        1.11919
H         -5.84757      -27.53871        1.61648
H         -8.99852      -26.96949       -1.29513
