120

N         -4.43136      -14.23219        2.52234
C         -4.31335      -15.23328        1.45028
C         -5.02713      -16.54201        1.81821
C         -4.58106      -17.65251        0.86743
N         -5.27387      -18.91654        1.17700
S         -4.29024      -20.02478        1.92401
N         -2.90633      -19.12874        1.82321
C         -3.05392      -17.92803        0.98610
C         -2.26285      -16.76536        1.59491
C         -2.79652      -15.41401        1.10823
N         -2.05242      -14.31306        1.76014
S         -3.02300      -13.39844        2.76223
C         -0.92267      -13.72428        1.22647
C         -0.80512      -12.65275        0.42260
C          0.44509      -12.15129       -0.06281
C          1.75962      -12.19328        0.62061
N          2.76311      -11.60658        0.02246
C          2.20011      -11.13663       -1.11252
C          0.81740      -11.49437       -1.17022
C          0.24599      -11.04894       -2.46440
S         -1.21924      -11.58664       -3.00772
C          1.37717      -10.24628       -3.08666
C          2.52448      -10.41329       -2.19765
N          3.61676       -9.78367       -2.66993
C          3.16827       -9.23212       -3.76177
C          1.73179       -9.45303       -4.11689
C          1.08952       -8.85592       -5.28962
C         -0.23491       -9.05051       -5.50744
C         -0.96505       -8.43112       -6.60052
C         -2.29054       -8.39677       -6.92955
C         -3.53656       -9.01623       -6.29094
C         -3.31040      -10.32281       -5.50408
N         -2.81441      -11.44053       -6.30063
C         -4.31076       -8.06130       -5.32978
N         -4.84263       -6.87073       -5.98935
C         -2.33311       -7.63459       -8.20138
C         -3.34409       -7.27247       -9.01702
C         -3.12471       -6.48406      -10.31434
C         -1.67525       -6.07692      -10.53948
C         -0.67126       -6.41718       -9.71383
C         -0.98027       -7.21230       -8.55778
C         -0.17792       -7.66385       -7.58360
C          1.23254       -7.46513       -7.37159
C          1.81312       -8.00661       -6.28081
C         -3.62138       -7.25327      -11.51363
C         -4.59162       -6.85904      -12.35617
C         -5.01372       -7.63324      -13.48027
C         -5.50083       -7.10954      -14.78471
N         -5.83750       -7.99456      -15.68091
C         -5.60588       -9.17122      -15.03866
C         -5.11271       -8.94406      -13.70135
C         -4.87692      -10.26638      -13.03014
S         -4.44294      -10.60138      -11.46035
C         -5.22146      -11.22731      -14.12509
C         -5.68528      -10.47421      -15.27143
N         -6.04608      -11.30409      -16.28068
C         -5.79314      -12.47864      -15.77776
C         -5.23589      -12.53568      -14.38990
N         -4.84218      -13.69149      -13.75055
C         -5.49067      -15.01003      -13.96114
C         -6.74541      -15.11453      -13.07900
C         -7.14654      -16.58003      -12.89801
N         -8.36776      -16.70169      -12.07965
S         -8.05122      -17.20795      -10.52817
N         -6.43964      -17.47777      -10.76017
C         -6.04033      -17.39645      -12.17089
C         -4.64964      -16.77381      -12.28708
C         -4.45149      -16.14679      -13.67032
N         -3.12140      -15.55652      -13.78681
S         -3.16739      -13.89601      -13.66481
C         -1.93659      -16.20909      -14.03345
C         -1.71557      -17.51420      -14.22754
H         -4.71197      -14.67607        3.39629
H         -4.80443      -14.81245        0.56197
H         -6.11393      -16.39753        1.76145
H         -4.80632      -16.82600        2.85654
H         -4.81987      -17.36172       -0.16370
H         -5.64749      -19.32266        0.31991
H         -2.10731      -19.68799        1.52834
H         -2.67077      -18.15719       -0.01748
H         -1.20043      -16.87313        1.34363
H         -2.31263      -16.79971        2.69282
H         -2.68135      -15.35259        0.01602
H         -0.04217      -14.26660        1.55837
H         -1.70818      -12.12289        0.12130
H          1.83539      -12.71464        1.58579
H          3.81060       -8.62570       -4.41372
H         -0.77693       -9.70452       -4.86656
H         -4.22321       -9.28706       -7.09984
H         -4.24665      -10.61253       -5.01226
H         -2.62850      -10.14470       -4.68534
H         -3.30326      -11.48777       -7.19200
H         -3.01787      -12.31042       -5.81062
H         -3.66177       -7.74864       -4.50762
H         -5.15862       -8.59001       -4.86345
H         -4.08448       -6.44755       -6.52230
H         -5.09619       -6.18098       -5.28251
H         -4.37314       -7.51250       -8.76785
H         -3.70089       -5.55479      -10.23813
H         -1.45432       -5.46143      -11.40602
H          0.34596       -6.09857       -9.90286
H          1.79864       -6.86358       -8.07227
H          2.87109       -7.81991       -6.13675
H         -3.10902       -8.19558      -11.69629
H         -5.07851       -5.89699      -12.22742
H         -5.53825       -6.02118      -14.95272
H         -5.95706      -13.40910      -16.33611
H         -5.78400      -15.12030      -15.01302
H         -7.56294      -14.54583      -13.53960
H         -6.56150      -14.64619      -12.10215
H         -7.33871      -17.02172      -13.88447
H         -9.00837      -17.36473      -12.51463
H         -6.11684      -18.34119      -10.32649
H         -6.03537      -18.41168      -12.59072
H         -3.89125      -17.54154      -12.08849
H         -4.50125      -16.00554      -11.51554
H         -4.58342      -16.92793      -14.43235
H         -1.07324      -15.54301      -14.07018
H         -2.50859      -18.25133      -14.20963
H         -0.70772      -17.87456      -14.41163
