96

C          0.31452       -4.86780       -5.96435
C         -0.63788       -6.03174       -6.01818
O         -0.65782       -6.97557       -5.25642
C         -1.58800       -5.72011       -7.12369
C         -1.24854       -4.46630       -7.67397
C          0.10755       -4.10901       -7.19111
C          1.06682       -3.59861       -7.99949
C          2.45533       -3.79117       -7.75210
N          3.59514       -3.96807       -7.63057
C          0.77533       -3.00500       -9.25699
N          0.52146       -2.50566      -10.27753
C         -2.09286       -3.85225       -8.58095
C         -3.19632       -4.56817       -9.04709
C         -3.45489       -5.88763       -8.62149
C         -2.65659       -6.48528       -7.61326
C         -2.94427       -7.80885       -7.21708
C         -3.96342       -8.53501       -7.83682
C         -4.73036       -7.94643       -8.83654
C         -4.48892       -6.62618       -9.21350
C          0.99589       -4.59730       -4.84334
C          1.69200       -3.39045       -4.52234
C          1.09413       -2.08010       -4.14731
N          1.90594       -1.17556       -3.67403
C          3.10315       -1.81942       -3.66273
C          2.96257       -3.14992       -4.20764
C          4.25935       -3.87381       -4.09756
S          4.64217       -5.39194       -4.65182
C          5.07557       -2.89322       -3.31498
C          4.31924       -1.66996       -3.14538
N          5.00107       -0.78638       -2.36689
C          6.08937       -1.44280       -2.06628
C          6.21017       -2.80993       -2.62576
C          7.16452       -3.78909       -2.33521
N          6.74730       -5.09084       -2.19672
C          7.79842       -5.90375       -1.89503
C          8.92592       -5.12136       -1.82687
C          8.52260       -3.78018       -2.08036
C          7.63040       -7.28775       -1.64960
C          7.38842       -8.51489       -1.28134
C          7.10633       -9.94546       -0.85204
C          6.61706      -10.26463        0.35062
C          6.32804      -11.61276        0.73900
C          6.46890      -12.84723       -0.08692
N          6.10982      -13.97370        0.45907
C          5.70389      -13.58343        1.69198
C          5.85240      -12.15286        1.86183
C          5.39425      -11.78112        3.23843
S          5.35664      -10.29426        3.97676
C          4.97465      -13.10884        3.78711
C          5.18703      -14.12676        2.78572
N          4.78525      -15.34373        3.23780
C          4.35501      -15.07346        4.43647
C          4.43062      -13.65293        4.87015
C          4.00858      -13.11478        6.12013
C          2.78042      -13.17834        6.65375
C          2.62553      -12.87364        8.11709
O          3.41510      -12.26305        8.80690
C          1.37073      -13.54647        8.54023
C          0.76487      -14.14156        7.41166
C          1.49934      -13.71233        6.18853
C          0.94261      -13.55769        4.96001
C          1.56247      -12.80308        3.92172
N          2.03583      -12.17063        3.07221
C         -0.36729      -14.01786        4.64198
N         -1.43072      -14.40075        4.38152
C         -0.34518      -14.95118        7.58732
C         -0.88730      -15.08784        8.86962
C         -0.32794      -14.43596        9.98716
C          0.84295      -13.65366        9.84028
C          1.38605      -13.03346       10.98785
C          0.77424      -13.16459       12.23592
C         -0.38257      -13.92359       12.36640
C         -0.92539      -14.56027       11.25101
H         -1.90995       -2.85518       -8.96982
H         -3.83539       -4.10192       -9.79687
H         -2.35106       -8.30431       -6.45033
H         -4.14700       -9.56716       -7.54800
H         -5.51302       -8.51646       -9.33104
H         -5.09914       -6.18777      -10.00098
H          0.95213       -5.31672       -4.02208
H          0.00934       -1.92987       -4.25482
H          6.88116       -1.05593       -1.40643
H          5.80117       -5.42822       -2.32426
H          9.92613       -5.46667       -1.59872
H          9.16626       -2.90986       -2.08615
H          7.33335      -10.67872       -1.61853
H          6.41101       -9.47564        1.07032
H          6.86383      -12.78029       -1.11059
H          3.94265      -15.82875        5.12235
H          4.81927      -12.68698        6.71431
H         -0.82098      -15.48745        6.77254
H         -1.77454      -15.70961        8.99180
H          2.28673      -12.42583       10.92163
H          1.20092      -12.66741       13.10377
H         -0.86434      -14.02081       13.33615
H         -1.83040      -15.15168       11.37806
