126

C          4.91740        2.67398        1.11863
C          4.43737        3.88506        1.48152
C          5.25456        5.05519        1.47558
N          5.93914        5.99172        1.49676
C          3.14121        4.01478        2.06378
N          2.10139        4.08743        2.57266
C          6.31904        2.36464        0.75859
C          6.60770        1.07256        1.22509
C          7.82066        0.44585        1.00858
C          8.73948        1.08581        0.16863
C          8.43331        2.36554       -0.38546
C          7.23799        3.02542       -0.03990
C          9.30341        2.91876       -1.33530
C         10.44326        2.22581       -1.74677
C         10.75903        0.99627       -1.17525
C          9.92214        0.43739       -0.20931
C          5.36822        0.42514        1.71168
O          5.26167       -0.68359        2.19289
C          4.27065        1.37828        1.33732
C          3.08525        0.85241        0.97446
C          2.13914        1.55762        0.08514
N          2.50777        2.43394       -0.81963
C          1.34368        2.73410       -1.45248
C          0.24870        1.99587       -0.87192
C         -0.99977        2.35383       -1.59699
O         -2.12895        1.95411       -1.42488
C         -0.51702        3.33698       -2.60062
C          0.90600        3.49883       -2.44869
N          1.37283        4.39500       -3.35710
C          0.29081        4.74925       -3.99632
C         -0.97698        4.11519       -3.57201
C          0.67444        1.21785        0.11972
C         -0.01992        0.30428        0.98420
C         -1.03433        0.66381        1.79508
C         -1.77073       -0.22496        2.72670
C         -3.09051        0.07931        3.11800
C         -3.84164       -0.66744        4.09513
C         -3.20955       -1.78490        4.71638
C         -1.90862       -2.11733        4.22380
C         -1.19202       -1.34599        3.29639
N         -3.71758       -2.60773        5.83186
C         -2.75667       -3.19353        6.79490
C         -1.56731       -2.53353        7.16225
C         -0.66685       -3.10019        8.07690
C         -0.97393       -4.29544        8.71990
C         -2.14995       -4.95990        8.40071
C         -2.99525       -4.44530        7.41083
C         -5.11623       -2.97779        5.99430
C         -5.97791       -3.20969        4.91392
C         -7.29047       -3.66581        5.12369
C         -7.75214       -3.94775        6.40908
C         -6.92805       -3.71130        7.49828
C         -5.64939       -3.19086        7.29149
C         -5.25148       -0.18274        4.19719
C         -6.07728       -0.06007        5.25109
C         -7.52185        0.25757        5.00917
N         -8.15751        0.01758        3.87991
C         -9.45196        0.32789        4.15931
C         -9.57371        0.75904        5.52886
C        -11.00348        1.06422        5.81125
O        -11.54223        1.43230        6.83165
C        -11.64382        0.79857        4.50954
C        -10.64579        0.36260        3.56819
N        -11.23840        0.11307        2.36970
C        -12.49535        0.38179        2.60057
C        -12.84995        0.83408        3.96113
C         -8.38122        0.81314        6.11671
C         -8.00195        1.30550        7.40775
C         -8.71312        2.22286        8.08481
C         -8.33844        2.84288        9.33740
C         -8.04816        2.24205       10.50189
C         -7.85441        2.84611       11.83549
C         -7.21248        4.01516       12.11444
C         -6.98704        4.46286       13.44405
N         -6.81084        4.82898       14.52746
C         -6.64777        4.83446       11.08751
N         -6.18509        5.49714       10.26103
C         -8.31577        1.82673       12.82379
C         -8.47569        0.61480       12.13715
C         -8.19601        0.76550       10.71066
O         -8.11432       -0.15126        9.92399
C         -8.92733       -0.55280       12.71845
C         -9.25595       -0.51639       14.06807
C         -9.10988        0.69321       14.80689
C         -8.64149        1.86561       14.16934
C         -9.45602        0.68509       16.16605
C         -9.94253       -0.47628       16.77359
C        -10.09374       -1.64740       16.03483
C         -9.75010       -1.66822       14.68767
H          7.99125       -0.55891        1.38525
H          7.00443        3.99041       -0.48231
H          9.07656        3.87517       -1.80312
H         11.07816        2.64149       -2.52540
H         11.64624        0.45812       -1.49954
H         10.18027       -0.53277        0.21020
H          2.87498       -0.19750        1.15612
H          0.27100        5.48263       -4.81689
H         -1.96556        4.27246       -3.95485
H          0.32305       -0.72666        0.94575
H         -1.35906        1.70392        1.80986
H         -3.56545        0.93853        2.63851
H         -1.40199       -3.00856        4.59353
H         -0.17211       -1.63924        3.06141
H         -1.31219       -1.56751        6.73512
H          0.27031       -2.59535        8.29738
H         -0.29900       -4.70882        9.46492
H         -2.41584       -5.88058        8.91455
H         -3.86883       -5.03840        7.14943
H         -5.65125       -3.03452        3.89309
H         -7.95262       -3.81120        4.27356
H         -8.75224       -4.34451        6.56237
H         -7.26519       -3.93331        8.50774
H         -5.04229       -2.99492        8.17375
H         -5.66012        0.09868        3.22226
H         -5.77487       -0.31420        6.25733
H        -13.29567        0.28822        1.85058
H        -13.80654        1.09803        4.36582
H         -7.07357        0.92495        7.82418
H         -9.63444        2.62943        7.67119
H         -8.44024        3.92593        9.29237
H         -9.04607       -1.44734       12.11441
H         -8.57470        2.78163       14.74983
H         -9.35303        1.58556       16.76866
H        -10.20848       -0.46656       17.82732
H        -10.48056       -2.54728       16.50585
H         -9.87784       -2.58899       14.12150
