112

C          0.16779       -0.78656       -0.52377
O         -0.23164       -1.39510        0.44392
C          0.14869        0.67618       -0.69450
C          0.94304        1.04693       -1.79155
C          0.89111        2.35616       -2.24562
C          0.04555        3.26996       -1.58668
C         -0.72425        2.87346       -0.47132
C         -0.66271        1.55946       -0.00505
Br        -1.94299        4.03423        0.40988
Br        -0.04476        5.02419       -2.31659
C          1.59395       -0.18208       -2.31827
C          2.77155       -0.25869       -2.97756
C          3.52513        0.90177       -3.32157
N          4.12099        1.85620       -3.59474
C          3.37471       -1.51287       -3.29761
N          3.84788       -2.53088       -3.55733
C          0.79833       -1.30483       -1.78421
C          0.42707       -2.42215       -2.43260
C         -0.57539       -3.31000       -1.95793
S         -0.13752       -4.60826       -0.91240
C         -1.91587       -3.40605       -2.23349
C         -2.88906       -2.72241       -3.05155
O         -2.65061       -1.85365       -3.87380
N         -4.10536       -3.31091       -2.73186
C         -5.37706       -2.90130       -3.30082
C         -6.34820       -2.39494       -2.24071
C         -3.97810       -4.39897       -1.88042
O         -4.84563       -5.15923       -1.48437
C         -2.57455       -4.44664       -1.55099
C         -1.75096       -5.25464       -0.81049
C         -2.06438       -6.45147       -0.10445
C         -1.15598       -7.14141        0.60329
C         -1.44236       -8.39451        1.22698
N         -1.39296       -8.60603        2.60275
C         -1.15925       -7.58695        3.60648
C         -2.45433       -6.93536        4.06922
C         -1.80478       -9.91394        2.93722
O         -1.94664      -10.43582        4.02395
C         -2.09840      -10.50324        1.61889
C         -1.82395       -9.51693        0.61770
C         -2.13465      -10.09233       -0.69816
O         -2.00798       -9.55803       -1.78059
N         -2.64102      -11.36649       -0.36146
C         -3.16644      -12.26832       -1.36732
C         -4.39608      -11.68386       -2.04947
C         -2.59932      -11.58032        1.01733
C         -3.05028      -12.75771        1.68865
C         -4.29131      -13.25256        1.59545
C         -4.67688      -14.41622        2.30588
S         -6.33344      -14.59573        2.76692
C         -3.98756      -15.52096        2.72920
C         -2.63582      -16.02247        2.66241
O         -1.67389      -15.48630        2.14125
N         -2.68087      -17.25040        3.30234
C         -1.51882      -18.10513        3.42627
C         -1.17153      -18.38921        4.87744
C         -3.94487      -17.59137        3.75396
O         -4.30956      -18.60264        4.33008
C         -4.78085      -16.47728        3.38766
C         -6.10706      -16.15191        3.50608
C         -7.16637      -16.90437        4.09382
C         -8.42882      -16.45718        4.16851
C         -9.51263      -17.18510        4.77477
C        -10.00189      -18.39402        4.46907
C        -10.99383      -18.95416        5.44154
O        -11.57509      -18.38015        6.33877
C        -11.10033      -20.38145        5.12808
C        -10.27558      -20.71775        4.04209
C         -9.67313      -19.45532        3.49884
C         -9.16246      -19.32157        2.24802
C         -9.06942      -18.06497        1.58662
N         -9.05058      -17.07706        0.97324
C         -8.78221      -20.43331        1.43423
N         -8.44941      -21.33125        0.78276
C        -10.25910      -22.04463        3.63096
C        -11.09859      -22.98238        4.26526
C        -11.93279      -22.60038        5.33253
C        -11.92075      -21.28367        5.78722
Br       -13.12911      -23.79722        6.19177
Br       -11.07193      -24.75257        3.56955
H          1.43744        2.67531       -3.12904
H         -1.27302        1.20982        0.82277
H          0.82221       -2.65072       -3.41794
H         -5.81780       -3.76441       -3.81193
H         -5.20897       -2.11330       -4.04258
H         -6.61159       -3.18400       -1.52880
H         -7.27564       -2.04551       -2.70568
H         -5.91375       -1.56642       -1.67205
H         -3.08543       -6.82676       -0.18512
H         -0.13175       -6.80255        0.72071
H         -0.47301       -6.82982        3.21318
H         -0.66928       -8.05876        4.46546
H         -2.97780       -6.45777        3.23455
H         -2.24557       -6.17086        4.82380
H         -3.13421       -7.67224        4.51000
H         -3.42058      -13.23655       -0.92754
H         -2.38126      -12.44940       -2.10922
H         -5.18303      -11.46813       -1.31926
H         -4.79138      -12.38169       -2.79236
H         -4.16040      -10.74670       -2.56390
H         -2.31484      -13.19725        2.35751
H         -5.03843      -12.74664        0.98606
H         -0.66177      -17.63093        2.93459
H         -1.73024      -19.04296        2.90157
H         -0.96911      -17.45900        5.41804
H         -0.28692      -19.02899        4.93925
H         -1.99096      -18.90085        5.39090
H         -6.91655      -17.88308        4.49999
H         -8.70790      -15.46087        3.82740
H         -9.95770      -16.63299        5.60643
H         -9.63774      -22.39067        2.81275
H        -12.54684      -20.95170        6.61111
