84

C          0.61404       -0.36802        0.92296
C         -0.49562        0.35021        1.34885
C         -1.36876        1.16674        0.50351
O         -1.33258        1.02514       -0.72700
C         -2.29731        2.22621        1.11730
F         -2.26023        2.35407        2.47153
F         -2.01179        3.47221        0.63460
F         -3.60555        1.99717        0.80327
S         -0.77079        0.09612        3.01156
C          0.59151       -0.91413        3.16643
C          1.25481       -1.11084        1.97152
C          2.44220       -1.96253        1.88066
C          2.59743       -3.07225        2.71774
C          3.75382       -3.86620        2.63277
N          3.83621       -4.97698        3.56683
O          3.79959       -4.69619        4.77267
O          3.85753       -6.12011        3.09143
C          4.78617       -3.59544        1.71933
C          4.60080       -2.49082        0.87149
C          3.45383       -1.68429        0.95455
C          5.99545       -4.42971        1.59365
C          7.20744       -3.98648        1.22063
C          8.33920       -4.86317        1.13054
N          9.04359       -5.07911       -0.04899
C          8.88240       -4.41743       -1.32347
C          9.75253       -3.17263       -1.43590
C         10.08332       -6.00161        0.13285
O         10.88566       -6.38324       -0.69625
C         10.00053       -6.33190        1.56888
C          8.89257       -5.58616        2.11177
C          8.82046       -5.87183        3.55168
O          8.03124       -5.40079        4.35720
N          9.91355       -6.74184        3.75661
C         10.35124       -7.09958        5.09435
C          9.66814       -8.33886        5.64418
C         10.57898       -7.03221        2.55224
C         11.71279       -7.92735        2.46545
C         12.37240       -8.24024        1.33414
C         13.49797       -9.11357        1.18583
C         14.42557       -9.30080        2.18989
S         15.70895      -10.31338        1.70707
C         15.04330      -10.50304        0.14640
C         13.84755       -9.82587       -0.03176
C         13.08100       -9.89803       -1.28890
O         11.86881       -9.71897       -1.34304
O         13.87356      -10.22768       -2.37863
C         13.16441      -10.31441       -3.58280
C         13.24338      -11.37357       -4.40558
C         12.45010      -11.54782       -5.59709
C         12.80360      -12.31712       -6.70845
C         14.04014      -13.07120       -6.96538
O         15.07687      -12.81124       -6.33806
C         14.06114      -14.21997       -7.99649
F         12.88373      -14.51205       -8.61478
F         14.95613      -13.98503       -9.00099
F         14.45432      -15.39574       -7.42006
S         11.58570      -12.21024       -7.92144
C         10.54987      -11.29424       -6.93942
C         11.13396      -10.98933       -5.73534
H          0.94184       -0.36215       -0.11226
H          0.82915       -1.31754        4.14185
H          1.82553       -3.33872        3.43740
H          5.34780       -2.23247        0.12293
H          3.37745       -0.82813        0.28673
H          5.87563       -5.48798        1.82507
H          7.38843       -2.94669        0.96691
H          7.82901       -4.18276       -1.49678
H          9.19336       -5.11932       -2.10815
H          9.43632       -2.40743       -0.72083
H          9.68311       -2.75190       -2.44383
H         10.80709       -3.39717       -1.23711
H         10.13442       -6.25590        5.76196
H         11.43830       -7.22475        5.10752
H          8.59924       -8.16224        5.79941
H         10.10773       -8.60884        6.61096
H          9.77863       -9.19189        4.96843
H         12.01867       -8.41022        3.38817
H         12.05412       -7.80116        0.40103
H         14.43055       -8.87280        3.18346
H         15.55776      -11.13028       -0.56903
H         12.55146       -9.43598       -3.75799
H         13.92830      -12.17292       -4.12928
H          9.56733      -11.00833       -7.28993
H         10.62608      -10.40268       -4.97783
