126

C         -3.32259       11.74541        0.93523
S         -2.71950       10.28490        1.56375
C         -1.21321       10.45057        0.73127
C         -1.22810       11.57911       -0.08092
C         -2.42537       12.36382        0.09231
C         -2.63714       13.71005       -0.54649
C         -1.53372       14.13465       -1.52953
C         -1.89806       13.79708       -2.95406
O         -2.60259       12.88104       -3.33977
O         -1.31540       14.62698       -3.84297
C         -0.15395       13.54687       -1.21521
O          0.37494       14.15832       -0.02852
C         -0.17393       12.01769       -1.06195
C         -0.23772        9.43677        0.96523
C          1.07351        9.69775        1.04782
C          2.09992        8.67107        1.32367
N          3.27203        8.71579        0.73439
C          3.94011        7.67339        1.29386
C          3.10247        7.00567        2.25684
C          3.88808        5.93093        2.91051
O          3.57444        5.16298        3.79317
C          5.19614        6.04721        2.23957
C          5.14247        7.11738        1.27747
N          6.36507        7.25937        0.69355
C          7.07462        6.33055        1.27280
C          6.39793        5.49607        2.28704
C          1.90312        7.56946        2.32981
C          0.80105        7.31926        3.20869
C          0.53963        6.14067        3.79683
C         -0.68329        5.88162        4.53493
C         -0.62474        5.53050        5.84706
C         -1.85055        5.16295        6.53937
C         -2.10075        4.82369        7.83578
C         -1.13566        4.86677        9.00722
C         -1.19447        6.25191        9.71515
N         -2.48503        6.61619       10.30658
C         -1.21470        3.72650       10.05440
N         -0.99695        2.39643        9.49308
C         -3.51673        4.43417        7.84412
C         -4.30377        3.86911        8.77256
C         -5.69896        3.38136        8.43743
C         -6.25704        3.88167        7.12093
C         -5.48945        4.49058        6.20507
C         -4.10131        4.67237        6.52587
C         -3.10453        5.11925        5.75790
C         -3.13741        5.56224        4.39316
C         -1.97973        5.93900        3.82873
C         -5.68331        1.87782        8.49937
C         -5.55551        0.99428        7.49495
C         -5.67008       -0.46960        7.72380
N         -4.99319       -1.35576        7.02965
C         -5.37666       -2.53668        7.57704
C         -6.33480       -2.32001        8.63208
C         -6.73396       -3.62610        9.20578
O         -7.48622       -3.89402       10.11682
C         -5.94704       -4.57152        8.40158
C         -5.15761       -3.84779        7.44319
N         -4.43847       -4.72769        6.70285
C         -4.78593       -5.88443        7.20210
C         -5.75814       -5.87800        8.31246
C         -6.60687       -1.02442        8.76655
C         -7.55696       -0.34017        9.58595
C         -8.24223       -0.85956       10.61084
C         -9.08433       -0.07424       11.45033
S        -10.44078       -0.84362       12.16309
C        -10.79754        0.49113       13.18041
C         -9.94368        1.55170       12.91103
C         -8.97727        1.23558       11.89114
C         -7.92342        2.24409       11.53676
C         -7.49222        3.05195       12.75852
C         -6.82247        2.19333       13.80074
O         -6.86838        2.37606       15.01611
O         -6.06499        1.20374       13.30499
C         -8.70484        3.77412       13.35133
O         -9.13689        4.77468       12.41443
C         -9.89597        2.85378       13.67286
C        -11.81924        0.32443       14.16077
C        -12.55052        1.33998       14.63442
H         -4.30619       12.09023        1.22561
H         -2.65858       14.44214        0.27300
H         -3.62658       13.74473       -1.01935
H         -1.48544       15.23158       -1.47420
H         -1.60599       14.30034       -4.72127
H          0.55165       13.79668       -2.01608
H          0.03661       13.66971        0.74434
H          0.82038       11.69603       -0.75391
H         -0.38381       11.53948       -2.02640
H         -0.60681        8.42817        1.12384
H          1.49767       10.68103        0.88347
H          8.13618        6.14063        1.05693
H          6.79007        4.71001        2.90005
H          0.11940        8.14806        3.38442
H          1.17565        5.26857        3.66739
H          0.32036        5.45096        6.37375
H         -0.11904        4.79942        8.59312
H         -0.91647        7.03891        9.00321
H         -0.43913        6.28660       10.50990
H         -3.17604        6.68973        9.55756
H         -2.81434        5.87392       10.91798
H         -2.16112        3.74028       10.59750
H         -0.44828        3.89104       10.82135
H         -1.70666        2.19054        8.78874
H         -1.09830        1.69158       10.22197
H         -3.96308        3.63935        9.76885
H         -6.37535        3.75612        9.21761
H         -7.30964        3.71048        6.91532
H         -5.88825        4.82047        5.25413
H         -4.07114        5.60059        3.84722
H         -1.97566        6.27664        2.79708
H         -5.74618        1.50487        9.51410
H         -5.31997        1.30169        6.47964
H         -4.40116       -6.85104        6.84580
H         -6.17712       -6.69270        8.86828
H         -7.72889        0.70075        9.34132
H         -8.16858       -1.91017       10.86107
H         -8.32813        2.90492       10.75931
H         -7.03832        1.76986       11.12425
H         -6.75003        3.79392       12.43321
H         -5.75653        0.70644       14.09222
H         -8.43411        4.30966       14.27006
H         -8.72335        5.61664       12.67430
H        -10.82212        3.40535       13.48646
H         -9.84744        2.59898       14.73881
H        -12.00782       -0.67697       14.54228
H        -12.45244        2.35888       14.28390
H        -13.30024        1.16812       15.39798
