116

C          2.98331      -15.28848       -6.45762
C          4.29202      -14.84577       -6.40535
C          4.73092      -13.75468       -5.56810
N          6.04718      -13.44284       -5.57092
C          6.89271      -14.13372       -6.38406
C          6.44546      -15.15976       -7.17943
N          5.13936      -15.52375       -7.19153
C          7.31055      -15.91432       -8.03458
N          8.02723      -16.51420       -8.71723
C          8.25386      -13.69155       -6.38053
N          9.35413      -13.32263       -6.39666
C          3.82760      -13.02312       -4.75513
C          2.45509      -13.45680       -4.79362
C          2.04928      -14.62155       -5.65052
N          0.75207      -14.94468       -5.55840
S          0.07691      -13.88116       -4.48505
N          1.39604      -12.94535       -4.13818
C          4.23724      -11.91460       -3.84935
S          3.59274      -11.91974       -2.26209
C          4.32095      -10.44509       -1.79020
C          5.17109      -10.00587       -2.79354
C          5.13562      -10.85705       -3.97309
C          6.00874      -10.48059       -5.13910
C          5.74985       -9.04517       -5.55062
S          6.18459       -7.88934       -4.26284
O          5.15875       -6.86170       -4.24452
O          7.57594       -7.52417       -4.46380
C          6.08453       -8.80995       -2.72163
C          4.06561       -9.85681       -0.50876
C          3.17008      -10.35457        0.35973
C          2.82082       -9.81269        1.66618
C          1.88684      -10.50125        2.37567
C          1.38338       -9.97516        3.62385
C          0.41126      -10.42502        4.46141
C         -0.42675      -11.69420        4.41631
C         -1.31892      -11.73744        3.14639
N         -2.23789      -12.88004        3.10680
C          0.48485      -12.94617        4.59103
N         -0.21874      -14.23659        4.57464
C          0.28582       -9.36415        5.46681
C         -0.59276       -9.17527        6.46207
C         -0.54663       -7.93386        7.34566
C          0.56425       -6.94590        7.00686
C          1.44745       -7.14669        6.01824
C          1.28804       -8.32850        5.22116
C          1.93325       -8.69712        4.11156
C          2.98060       -8.02890        3.38869
C          3.38800       -8.56524        2.22534
C         -0.46886       -8.35321        8.78570
C          0.66861       -8.55426        9.47487
C          0.66874       -8.90498       10.85180
S         -0.54594       -8.30711       11.89658
C          0.09755       -9.07614       13.27764
C          1.24098       -9.78723       12.95344
C          1.58880       -9.65927       11.56089
C          2.84061      -10.29892       11.03231
C          4.01635       -9.92417       11.91648
S          3.82426      -10.55830       13.57786
O          4.41055       -9.58206       14.47993
O          4.31295      -11.92605       13.57176
C          2.05567      -10.61861       13.89846
C         -0.55550       -8.97945       14.53831
C         -1.27288       -7.90334       14.89941
C         -1.96019       -7.75905       16.18914
C         -2.56962       -8.80644       16.91526
C         -3.22836       -8.56348       18.17167
N         -3.79163       -9.57141       18.86166
C         -3.72187      -10.82448       18.34245
C         -3.10531      -11.06845       17.14134
N         -2.53591      -10.06651       16.42670
C         -2.99392      -12.37674       16.56320
N         -2.89725      -13.43866       16.09988
C         -4.32370      -11.86620       19.12687
N         -4.79885      -12.72231       19.73969
C         -3.32624       -7.29622       18.73561
C         -2.75835       -6.21817       18.02653
C         -2.06375       -6.44355       16.72459
N         -1.58814       -5.30405       16.18884
S         -1.97606       -4.07777       17.23402
N         -2.77035       -4.93487       18.41263
H          2.68512      -16.12161       -7.08479
H          5.82585      -11.11077       -6.00862
H          7.05948      -10.61186       -4.84479
H          4.68900       -8.89770       -5.77872
H          6.33697       -8.78268       -6.43576
H          5.78986       -8.08944       -1.95389
H          7.09938       -9.15636       -2.49393
H          4.61943       -8.96037       -0.25412
H          2.59679      -11.23929        0.09195
H          1.45189      -11.41842        1.99756
H         -1.10994      -11.69122        5.27653
H         -0.70359      -11.77527        2.24349
H         -1.92355      -10.82550        3.09005
H         -1.67522      -13.72446        3.29009
H         -2.59829      -12.99345        2.16081
H          1.01546      -12.86863        5.54820
H          1.24613      -12.98195        3.80582
H         -0.94366      -14.23132        5.29572
H          0.43028      -14.98072        4.83134
H         -1.38605       -9.88991        6.65330
H         -1.48993       -7.39010        7.20297
H          0.64130       -6.04870        7.61602
H          2.24148       -6.44031        5.80948
H          3.41001       -7.11054        3.76953
H          4.16539       -8.05309        1.67054
H         -1.43925       -8.49779        9.25563
H          1.62885       -8.45900        8.97484
H          3.04810       -9.97557       10.00749
H          2.70408      -11.38680       11.00749
H          4.11879       -8.83575       11.99389
H          4.95138      -10.33284       11.52179
H          1.91831      -10.31389       14.94016
H          1.74861      -11.66600       13.80185
H         -0.43317       -9.81921       15.21438
H         -1.35153       -7.03953       14.24125
H         -3.82739       -7.13526       19.68302
