140

C         -1.89409       -1.27421        4.15646
N         -2.97532       -1.48767        4.89300
C         -4.05039       -1.42028        4.05928
C         -3.77813       -1.11923        2.73740
S         -2.14323       -0.95780        2.46161
C         -5.01996       -0.88716        1.98673
C         -5.85706       -0.30521        3.18608
C         -5.56518       -1.33675        4.36166
C         -6.17712       -2.75174        4.18010
C         -7.69252       -2.82211        4.18265
C         -5.85936       -0.70141        5.73837
C         -5.60872       -1.61318        6.93730
N         -7.18731        0.14087        2.70329
C         -7.08972        0.36798        1.22209
S         -5.32207        0.32302        0.75219
C         -7.84095        1.23836        3.31074
C         -7.23372        2.35624        3.91540
C         -5.84799        2.87731        3.95919
O         -4.97672        2.61362        3.15126
N         -5.79082        3.83320        4.94580
C         -7.04982        4.24898        5.26552
O         -7.44436        5.19226        5.92526
C         -7.96729        3.34025        4.58370
C         -9.34081        3.40760        4.56048
C         -9.96771        2.37402        3.88771
C         -9.26141        1.30212        3.31526
C        -10.20061        0.31831        2.74039
O         -9.89766       -0.71971        2.18287
S        -11.87382        0.82584        2.91687
C        -11.41149        2.30399        3.70460
O        -12.17880        3.18700        4.04235
C         -4.60979        4.43885        5.29941
C         -4.42542        5.33345        6.28547
C         -3.19333        6.11260        6.29209
C         -3.34661        7.45959        6.22457
C         -2.31918        8.20918        5.52778
C         -2.33396        9.49527        5.10336
C         -3.00221       10.73202        5.65956
C         -4.49878       10.92733        5.34716
N         -4.76798       11.10997        3.92542
C         -2.73037       10.90988        7.19107
N         -3.42239       10.02850        8.13408
C         -1.51929        9.43376        3.88480
C         -1.64095       10.11712        2.73463
C         -1.00028        9.59810        1.44485
C          0.11480        8.58327        1.68127
C          0.22888        7.90453        2.84012
C         -0.74523        8.19625        3.85556
C         -1.23664        7.45530        4.85431
C         -0.92121        6.13032        5.31907
C         -1.86078        5.50696        6.05736
C         -0.54400       10.75667        0.60258
C         -1.23612       11.18196       -0.47027
C         -0.90158       12.45747       -1.08772
C         -1.36851       13.64227       -0.52150
C         -2.37062       13.87318        0.52860
O         -3.05163       12.98230        0.99873
N         -2.40175       15.22919        0.76118
C         -1.54650       15.89224       -0.09127
O         -1.30411       17.07985       -0.19556
C         -0.91436       14.88957       -0.93499
C         -0.01156       15.03812       -1.97025
C          0.39517       13.86123       -2.59523
C         -0.03525       12.59879       -2.17486
C          0.50733       11.52540       -3.01691
O          0.22222       10.34625       -2.92119
S          1.58177       12.15813       -4.24818
C          1.30558       13.80284       -3.73068
O          1.80264       14.78438       -4.24803
C         -3.18678       15.90224        1.67566
C         -4.08983       15.36692        2.50902
C         -4.86313       16.12837        3.44390
N         -5.79369       15.61263        4.24741
C         -6.29967       16.60204        5.03431
C         -5.76219       17.85154        4.84920
S         -4.62849       17.86929        3.64200
C         -6.35254       18.85029        5.74224
C         -6.76023       17.88966        6.91072
C         -7.32656       16.58426        6.16710
C         -8.74804       16.77080        5.57099
C         -9.85872       17.05909        6.57018
C         -7.19558       15.36110        7.10276
C         -7.69927       14.03689        6.53759
N         -7.42291       18.72751        7.90695
C         -6.49058       19.85781        8.12218
S         -5.42996       20.06139        6.64132
H         -0.89723       -1.26616        4.57783
H         -5.42749       -1.83764        1.62593
H         -5.33407        0.58097        3.53327
H         -5.79566       -3.41632        4.96649
H         -5.82432       -3.21593        3.25082
H         -8.11929       -2.41687        5.10300
H         -8.00941       -3.86774        4.09888
H         -8.11373       -2.29038        3.32856
H         -6.90343       -0.36933        5.77848
H         -5.24370        0.19827        5.86780
H         -6.41208       -2.34853        7.04690
H         -5.57943       -1.02213        7.85844
H         -4.66040       -2.15180        6.85713
H         -7.53561        1.31074        0.88587
H         -7.60134       -0.45528        0.71162
H         -9.88498        4.22657        5.02208
H         -3.77090        4.16671        4.65688
H         -5.22921        5.64667        6.94418
H         -4.32851        7.91700        6.30409
H         -2.47578       11.58837        5.20946
H         -4.85280       11.82730        5.86571
H         -5.09598       10.08967        5.71925
H         -4.56283       10.24825        3.42179
H         -5.75551       11.31227        3.78079
H         -2.99943       11.93564        7.46964
H         -1.65340       10.82177        7.38223
H         -3.02115        9.09241        8.08120
H         -4.40739        9.93936        7.89882
H         -2.34642       10.93883        2.64806
H         -1.78728        9.06098        0.89370
H          0.78146        8.35162        0.85551
H          0.97887        7.13999        2.99869
H          0.04033        5.68362        5.10163
H         -1.68587        4.51088        6.45241
H          0.32569       11.29708        0.96688
H         -2.13816       10.67991       -0.81311
H          0.33925       16.01861       -2.28527
H         -3.00097       16.97473        1.67030
H         -4.29663       14.29905        2.51984
H         -7.22752       19.31952        5.27645
H         -5.84348       17.51813        7.41326
H         -9.02052       15.87440        4.99911
H         -8.75086       17.57926        4.82849
H         -9.89782       16.31533        7.36961
H        -10.82642       17.04981        6.05686
H         -9.75092       18.05087        7.01523
H         -7.73231       15.55846        8.03878
H         -6.14220       15.22015        7.37953
H         -8.77841       14.05641        6.36122
H         -7.50304       13.23088        7.25315
H         -7.19710       13.77643        5.60201
H         -7.54230       18.22024        8.78228
H         -5.84011       19.66005        8.98001
H         -7.05036       20.77831        8.30651
