102

C          3.82411       -7.62181        1.45573
S          2.53678       -6.79411        2.17308
C          1.96274       -6.18064        0.67722
C          2.69405       -6.70302       -0.39339
C          3.79391       -7.55507        0.07864
C          4.77162       -8.27462       -0.80662
F          5.67817       -8.98382       -0.08527
F          4.14953       -9.15375       -1.62605
F          5.47560       -7.41890       -1.58303
C          2.48017       -6.46211       -1.86856
F          1.49815       -5.59659       -2.18996
F          3.61221       -5.95530       -2.42487
F          2.22366       -7.62651       -2.51488
C          0.79523       -5.30889        0.67073
N         -0.10339       -5.41251       -0.28438
C         -1.00250       -4.43499       -0.00630
C         -0.63901       -3.75055        1.20385
C         -1.64369       -2.68384        1.47878
O         -1.70540       -1.89734        2.39362
C         -2.54806       -2.80283        0.31310
C         -2.08851       -3.87603       -0.53200
N         -2.89194       -3.97845       -1.62222
C         -3.77025       -3.03316       -1.42675
C         -3.62880       -2.22650       -0.19579
C          0.50676       -4.22359        1.68554
C          1.26824       -3.78990        2.81732
C          1.35836       -2.50537        3.18410
C          2.11406       -2.01726        4.32165
C          1.52701       -1.04124        5.05438
C          2.24833       -0.43165        6.14519
C          1.87226        0.55700        6.99202
C          0.56384        1.31551        6.96329
C         -0.36296        0.89832        8.13072
N         -1.68440        1.52864        8.07398
C          0.79323        2.84308        6.84669
N         -0.40844        3.57626        6.42391
C          3.03036        0.75434        7.86763
C          3.24150        1.57500        8.90982
C          4.56533        1.60395        9.67632
C          5.58341        0.58102        9.17884
C          5.37853       -0.22490        8.12345
C          4.10417       -0.15965        7.46422
C          3.62521       -0.87010        6.43367
C          4.22450       -1.90983        5.63249
C          3.49545       -2.44615        4.63293
C          5.12293        3.01959        9.69753
C          6.30867        3.41766        9.20396
C          6.84030        4.79883        9.17002
N          7.69129        5.16446        8.23545
C          7.90553        6.47871        8.49667
C          7.16227        6.87565        9.66064
C          7.43673        8.30671        9.94214
O          7.01872        9.01815       10.82942
C          8.33689        8.67530        8.83258
C          8.57769        7.51504        8.01049
N          9.40560        7.85024        6.98742
C          9.62339        9.12127        7.18805
C          8.96846        9.73948        8.36131
C          6.46101        5.86142       10.15932
C          5.69098        5.78260       11.36076
C          4.96496        6.80652       11.83586
C          4.24372        6.68577       13.05030
S          5.02767        7.11065       14.51590
C          3.63873        6.78565       15.43911
C          2.56976        6.36772       14.67029
C          2.92486        6.30345       13.25776
C          1.95532        5.87425       12.19347
F          2.47149        5.89872       10.93889
F          1.53187        4.60340       12.40697
F          0.85394        6.66292       12.17819
C          1.21711        6.02537       15.21442
F          1.15741        6.15491       16.56289
F          0.25593        6.82542       14.69581
F          0.87751        4.74719       14.92328
H          4.53469       -8.15952        2.07260
H         -4.59461       -2.80606       -2.11928
H         -4.23118       -1.40922        0.14732
H          1.77482       -4.53561        3.41823
H          0.82376       -1.73283        2.63295
H          0.51853       -0.70469        4.83663
H          0.03583        1.02649        6.04404
H          0.10622        1.13564        9.09095
H         -0.52068       -0.18709        8.10572
H         -1.56703        2.48731        7.71493
H         -2.06582        1.62238        9.01271
H          1.58823        3.05001        6.12129
H          1.10450        3.25604        7.80980
H         -0.67722        3.25793        5.49191
H         -0.18065        4.56752        6.32541
H          2.45949        2.23774        9.26193
H          4.33549        1.33247       10.71555
H          6.53038        0.52084        9.70918
H          6.13788       -0.91677        7.77926
H          5.24091       -2.22960        5.82587
H          3.93412       -3.21404        4.00258
H          4.44942        3.74976       10.13809
H          6.95848        2.71740        8.68457
H         10.25615        9.74965        6.54465
H          8.99942       10.75299        8.70355
H          5.73629        4.84219       11.90717
H          4.90673        7.76183       11.31920
H          3.66523        6.92286       16.51325
