128

C         -0.38484        6.83911        7.47264
C         -1.72977        6.72016        7.49628
C         -2.58280        7.82683        7.77783
N         -3.27043        8.73523        8.00075
C         -2.35743        5.44695        7.40911
N         -2.87992        4.40382        7.42424
C          0.38602        7.97928        7.98360
C          1.51586        7.46031        8.63674
C          2.37849        8.25872        9.36202
C          2.14565        9.64400        9.35862
C          1.08922       10.19081        8.56860
C          0.20053        9.34597        7.88919
C          0.93880       11.58045        8.48306
C          1.77075       12.42807        9.21152
C          2.75690       11.89594       10.03829
C          2.95148       10.51428       10.10382
C          1.66855        6.01897        8.30317
O          2.53547        5.26147        8.67835
C          0.58389        5.75863        7.29469
C          0.84431        4.96547        6.24024
C          0.20297        5.08035        4.95860
S         -0.23762        6.62314        4.31939
C         -0.82903        5.99129        2.85494
C         -0.69483        4.60650        2.81886
C          0.00826        4.10505        3.98739
C          0.44566        2.66503        4.07970
C          0.53631        2.01947        2.69271
C         -0.77877        2.20554        1.94177
C         -1.11158        3.68874        1.68277
O         -2.51516        3.75556        1.43174
C         -1.34220        6.89894        1.86610
C         -2.65819        7.21960        1.94702
C         -3.33986        7.73665        0.77057
C         -4.66543        7.82021        0.45930
C         -5.96815        7.67906        1.24657
C         -5.83396        7.38991        2.76681
N         -5.29545        6.06028        3.07846
C         -6.83647        8.96785        1.05537
N         -8.13301        8.92849        1.74662
C         -4.64777        7.86315       -1.01694
C         -5.57496        7.45736       -1.90095
C         -5.23418        7.24275       -3.37562
C         -3.87429        7.79761       -3.78697
C         -2.96101        8.22407       -2.89763
C         -3.29634        8.10087       -1.50622
C         -2.50900        7.99912       -0.43071
C         -1.07014        7.99173       -0.33463
C         -0.52385        7.43705        0.76393
C         -6.31227        7.77427       -4.27526
C         -7.55982        7.28154       -4.30124
C         -8.49958        7.81348       -5.21275
S         -9.46969        9.13243       -4.73766
C        -10.33206        9.14125       -6.22340
C         -9.85146        8.17688       -7.09525
C         -8.76981        7.42088       -6.51011
C         -8.06664        6.32394       -7.25759
C         -8.23047        6.49214       -8.76958
C         -9.70820        6.65786       -9.12914
C        -10.33839        7.91467       -8.49837
O        -11.75730        7.75699       -8.53310
C        -11.34228       10.12819       -6.39227
C        -12.55429       10.03325       -5.81987
C        -13.58944       11.07808       -5.64181
C        -13.82845       12.14214       -6.44971
C        -14.89002       13.06493       -6.21984
N        -15.74260       13.82347       -6.03433
C        -13.06008       12.40820       -7.61863
N        -12.42259       12.64223       -8.56250
C        -14.39995       10.66066       -4.45424
C        -14.04728        9.34792       -4.11332
C        -12.99798        8.84575       -5.01022
O        -12.63544        7.69027       -5.08909
C        -14.59359        8.65640       -3.04154
C        -15.54974        9.30542       -2.25222
C        -15.93496       10.63697       -2.57032
C        -15.34342       11.30796       -3.66488
C        -16.90683       11.26817       -1.77749
C        -17.48390       10.61060       -0.68913
C        -17.09143        9.31441       -0.36984
C        -16.13009        8.66504       -1.14565
H          3.22093        7.81812        9.88773
H         -0.60670        9.76401        7.29355
H          0.16814       12.01678        7.84989
H          1.63991       13.50472        9.14081
H          3.38358       12.55986       10.62810
H          3.73621       10.12488       10.74854
H          1.69515        4.28889        6.29573
H         -0.26820        2.11338        4.70170
H          1.42813        2.59507        4.56016
H          0.76051        0.95019        2.79819
H          1.35732        2.46330        2.11507
H         -1.58768        1.72600        2.50963
H         -0.74381        1.67105        0.98316
H         -0.60024        4.00773        0.76831
H         -2.95719        3.82864        2.29561
H         -3.23136        6.87179        2.78600
H         -6.53325        6.84191        0.81308
H         -6.81445        7.43308        3.25129
H         -5.21885        8.16397        3.24215
H         -5.85010        5.33961        2.62379
H         -5.34428        5.90396        4.08330
H         -7.04597        9.12939       -0.00800
H         -6.28813        9.84880        1.41006
H         -8.65535        8.09936        1.46802
H         -8.69514        9.73045        1.46018
H         -6.54516        7.11461       -1.55922
H         -5.17840        6.15596       -3.53918
H         -3.62618        7.80041       -4.84493
H         -1.98768        8.58897       -3.20126
H         -0.46573        8.40974       -1.12993
H          0.55360        7.40362        0.88604
H         -6.04042        8.57389       -4.96287
H         -7.87795        6.47859       -3.64382
H         -8.48677        5.35965       -6.94464
H         -6.99793        6.30961       -7.01284
H         -7.81387        5.61736       -9.28174
H         -7.66513        7.36764       -9.11376
H        -10.25912        5.76121       -8.81516
H         -9.82283        6.70642      -10.21897
H        -10.08730        8.78315       -9.11870
H        -11.98802        7.21515       -7.75424
H        -11.01073       11.02228       -6.90736
H        -14.26597        7.64321       -2.82517
H        -15.63745       12.33603       -3.84943
H        -17.23138       12.28249       -2.00366
H        -18.24021       11.11256       -0.09031
H        -17.53614        8.80652        0.48269
H        -15.83821        7.65179       -0.87650
