110

C          2.93542       -1.42320       -0.32783
C          3.96427       -2.26856       -0.57377
C          4.38954       -2.58254       -1.89485
N          4.68619       -2.84693       -2.98491
C          4.76618       -2.79656        0.48250
N          5.46806       -3.17367        1.32581
C          2.37350       -0.45226       -1.29469
C          2.02533        0.70625       -0.57398
C          1.59859        1.87009       -1.18905
C          1.47260        1.85393       -2.58115
C          1.72438        0.67121       -3.31020
C          2.17264       -0.49105       -2.66404
Cl         1.50578        0.58221       -5.02296
Cl         0.99780        3.32220       -3.35721
C          2.10490        0.44164        0.88258
O          1.85969        1.22456        1.77502
C          2.44032       -1.01635        0.98656
C          1.98843       -1.71996        2.03636
C          1.84570       -3.14231        2.05414
S          1.97699       -3.98009        3.55156
C          1.54840       -5.49155        2.86488
C          1.37790       -5.37717        1.50042
C          1.52548       -4.03462        1.04238
C          1.37794       -6.67077        3.68081
C          2.05169       -7.00435        4.83865
C          1.59489       -8.23064        5.40716
C          0.58782       -8.82112        4.66733
S          0.21027       -7.86615        3.29230
C         -0.10519      -10.05992        4.94003
S         -0.29652      -10.64780        6.53813
C         -1.19782      -12.02416        6.03022
C         -1.30353      -12.04865        4.65329
C         -0.68758      -10.92314        4.03192
C         -1.70034      -12.90894        7.02414
C         -2.78755      -13.67392        6.82413
C         -3.40594      -14.51476        7.80916
C         -4.76928      -14.76726        7.84289
C         -5.91113      -14.31512        7.00096
N         -5.00726      -15.56451        8.93405
C         -3.84088      -15.83740        9.60418
C         -3.86869      -16.70063       10.81399
C         -2.81584      -15.19453        8.92824
C         -1.42553      -15.19788        9.28514
C         -0.93512      -15.22253       10.53433
C          0.44426      -15.02647       10.81938
S          0.87062      -14.38127       12.35675
C          2.53933      -14.33750       11.98694
C          2.77592      -14.84947       10.72653
C          1.57787      -15.24116       10.05808
C          3.50007      -13.82934       12.93481
C          3.31153      -12.84641       13.88766
C          4.48092      -12.60582       14.66692
C          5.53423      -13.42306       14.30643
S          5.09831      -14.43856       12.99598
C          6.85104      -13.48375       14.89114
S          7.57686      -12.11453       15.62345
C          9.01701      -12.96837       16.00630
C          8.92144      -14.28671       15.60108
C          7.68673      -14.58087       14.96138
C         10.08786      -12.28390       16.64540
C         11.35570      -12.66417       16.42703
C         12.48871      -11.98455       17.01149
C         13.72819      -11.94211       16.49955
C         14.95187      -11.32967       17.05963
C         15.02086      -10.25843       17.89312
C         16.26227       -9.67777       18.27996
N         17.28187       -9.20929       18.59739
C         13.86959       -9.57912       18.39969
N         12.94105       -9.02429       18.82258
C         16.10234      -11.99140       16.36776
C         15.60462      -12.71742       15.27467
C         14.13959      -12.66533       15.24446
O         13.45281      -13.14583       14.36806
C         16.40095      -13.44324       14.40126
C         17.77161      -13.46740       14.64664
C         18.30172      -12.77906       15.75576
C         17.46678      -12.04356       16.61953
Cl        19.99010      -12.81179       16.12878
Cl        18.76057      -14.38523       13.56917
H          1.36782        2.75562       -0.60402
H          2.34770       -1.39228       -3.24469
H          1.58782       -1.17955        2.89576
H          1.11776       -6.20975        0.85638
H          1.35341       -3.75268        0.01144
H          2.84246       -6.40074        5.26778
H          2.00368       -8.65699        6.31557
H         -1.80749      -12.83602        4.10637
H         -0.67500      -10.76616        2.96076
H         -1.20878      -12.89582        7.99219
H         -3.29427      -13.61919        5.86391
H         -5.58682      -13.95384        6.02188
H         -6.45353      -13.50576        7.50187
H         -6.61484      -15.13806        6.83257
H         -5.92093      -15.89549        9.21439
H         -4.89019      -17.00056       11.06863
H         -3.47547      -16.16971       11.68405
H         -3.27817      -17.60709       10.65124
H         -0.72988      -15.06842        8.45964
H         -1.60463      -15.29102       11.38237
H          3.76217      -14.92651       10.28519
H          1.55921      -15.65532        9.05735
H          2.37840      -12.31339       14.02656
H          4.52879      -11.87766       15.46777
H          9.70628      -15.01756       15.75350
H          7.43106      -15.56144       14.57893
H          9.86210      -11.41296       17.25679
H         11.56276      -13.49823       15.75971
H         12.25980      -11.51335       17.96346
H         15.95760      -13.98866       13.57226
H         17.91662      -11.55294       17.47671
