104

C          2.84496       -0.19603        2.95802
C          3.74424       -0.81857        2.16112
C          4.15578       -0.25904        0.91168
N          4.45556        0.19825       -0.10451
C          4.40073       -2.01687        2.54944
N          4.94865       -3.00572        2.83716
C          2.40573        1.21235        2.81089
C          2.31068        1.75623        4.10507
C          1.97900        3.07738        4.34497
C          1.66107        3.87009        3.23951
C          1.67202        3.32203        1.93695
C          2.05511        1.98751        1.71755
Cl         1.18523        4.24006        0.55442
Cl         1.21354        5.51145        3.54082
C          2.45565        0.68261        5.11387
O          2.48103        0.81486        6.31712
C          2.44803       -0.58784        4.30895
C          1.78718       -1.63754        4.82390
C          1.27008       -2.74967        4.08818
S          1.16151       -4.28721        4.87335
C          0.55468       -5.07237        3.47954
C          0.37226       -4.17774        2.45033
C          0.72677       -2.84851        2.81534
C          0.31134       -6.48811        3.39999
C          0.49465       -7.27691        2.28092
C          0.16871       -8.64144        2.51927
C         -0.29953       -8.85795        3.80184
S         -0.30172       -7.40047        4.70513
C         -0.72046      -10.11987        4.36204
S         -1.92290      -10.23734        5.57642
C         -1.84537      -11.95534        5.63299
C         -0.90643      -12.42010        4.72872
C         -0.26827      -11.37263        3.99867
C         -2.71861      -12.64753        6.52435
C         -2.38536      -13.82379        7.08010
C         -3.25359      -14.52543        7.97559
S         -2.54032      -15.51688        9.19773
C         -4.05424      -15.97874        9.87684
C         -5.08881      -15.45556        9.12268
C         -4.63150      -14.58856        8.08649
O         -5.45394      -13.88270        7.28070
O         -6.39636      -15.67113        9.42054
C         -7.05083      -16.44378        8.41283
C         -4.09747      -16.80986       11.06415
S         -5.28384      -18.02633       11.29793
C         -4.68332      -18.46516       12.84443
C         -3.57005      -17.70964       13.16163
C         -3.23079      -16.77054       12.14187
C         -5.30744      -19.47211       13.67808
C         -5.30608      -19.51092       15.06056
C         -6.00649      -20.63764       15.58373
C         -6.52456      -21.45128       14.59650
S         -6.15039      -20.82599       13.04210
C         -7.29572      -22.66284       14.77403
S         -7.08190      -23.68070       16.14116
C         -8.30442      -24.78071       15.63963
C         -8.85210      -24.37881       14.43518
C         -8.28162      -23.16225       13.94711
C         -8.58867      -25.92352       16.43808
C         -9.51714      -25.88907       17.40845
C         -9.79581      -27.04549       18.24120
C        -10.70387      -27.12066       19.22853
C        -11.01582      -28.23900       20.15193
C        -10.85824      -29.56741       19.91650
C        -11.30228      -30.57013       20.82498
N        -11.66325      -31.38309       21.57036
C        -10.29571      -30.07580       18.71338
N         -9.82898      -30.49503       17.73162
C        -11.73559      -27.63781       21.31690
C        -12.07291      -26.31562       20.99491
C        -11.51715      -25.94136       19.69056
O        -11.69906      -24.86940       19.15342
C        -12.79172      -25.47702       21.83469
C        -13.18008      -25.97954       23.07476
C        -12.81784      -27.28737       23.44992
C        -12.08781      -28.11420       22.57433
Cl       -13.24093      -27.94621       24.99243
Cl       -14.09506      -24.94216       24.10825
H          1.93030        3.46213        5.35942
H          2.03651        1.58097        0.70977
H          1.52128       -1.59494        5.88295
H         -0.00557       -4.45297        1.47160
H          0.59132       -2.03443        2.12037
H          0.86619       -6.89978        1.33522
H          0.26226       -9.41898        1.77122
H         -0.69333      -13.46996        4.57115
H          0.49051      -11.53997        3.24346
H         -3.66729      -12.17238        6.76179
H         -1.40881      -14.26048        6.88721
H         -6.35782      -13.91549        7.64252
H         -7.84660      -17.02090        8.89322
H         -6.37677      -17.14609        7.90829
H         -7.51553      -15.77896        7.67828
H         -3.01370      -17.81802       14.08499
H         -2.39504      -16.08441       12.21496
H         -4.83673      -18.75914       15.68325
H         -6.13012      -20.83377       16.64243
H         -9.64154      -24.91380       13.92164
H         -8.59581      -22.67050       13.03313
H         -8.02683      -26.83324       16.24803
H        -10.09171      -24.98367       17.58491
H         -9.15846      -27.89502       18.00735
H        -13.03099      -24.46201       21.52917
H        -11.81146      -29.10567       22.91922
