95

C          3.65144        4.46580       -1.19150
C          3.95318        5.48066       -0.35334
C          4.87283        5.31176        0.71465
N          5.60683        5.15763        1.60076
C          3.45346        6.79510       -0.55863
N          3.08447        7.88160       -0.75243
C          4.31676        3.15527       -1.27989
C          4.29908        2.76768       -2.62942
C          4.87775        1.59201       -3.07082
C          5.37600        0.70509       -2.10361
C          5.27256        1.02534       -0.71690
C          4.77705        2.27655       -0.31454
C          5.63395        0.06432        0.23769
C          6.12263       -1.18101       -0.15739
C          6.28755       -1.46839       -1.50947
C          5.91956       -0.53124       -2.47676
C          3.40239        3.67023       -3.39767
O          3.15947        3.63047       -4.58362
C          2.76605        4.53789       -2.34644
C          1.45742        4.83798       -2.43487
C          0.62768        5.08889       -1.29097
C          0.61373        4.54695       -0.03302
C         -0.45518        4.91086        0.79317
S         -0.37622        3.96123        2.34976
C          1.17417        3.35252        1.70842
N          1.53038        3.65377        0.45588
C          2.02703        2.50429        2.59892
C         -1.26715        5.86933        0.24378
S         -0.70240        6.18905       -1.37032
C         -2.42746        6.57613        0.85223
C         -3.57691        7.01105        0.14399
C         -4.66999        7.72543        0.77412
N         -5.70049        8.14313        0.00444
C         -5.69424        7.93689       -1.33429
C         -4.67501        7.24508       -1.92306
N         -3.64089        6.76254       -1.18548
C         -4.61077        7.00212       -3.33409
N         -4.57973        6.81818       -4.47865
C         -6.78089        8.51570       -2.06921
N         -7.63036        8.99340       -2.70326
C         -4.71109        8.02718        2.16039
C         -3.55791        7.64131        2.90049
C         -2.39749        6.93180        2.23368
N         -1.37417        6.74400        3.08452
S         -1.85442        7.22965        4.58168
N         -3.31801        7.86897        4.20223
C         -5.82744        8.74337        2.84250
C         -6.36579        8.67294        4.10533
C         -7.44408        9.53107        4.36033
S         -8.00707        9.40411        6.07591
C         -6.67089        8.21718        6.22498
N         -5.94869        7.88429        5.14555
C         -6.41552        7.62272        7.57433
C         -7.82668       10.26859        3.28085
S         -6.67085       10.03981        2.03621
C         -8.85695       11.24971        3.28979
C         -9.68198       11.55837        2.27226
C        -10.58470       12.73480        2.16065
C        -11.28513       13.32836        3.15589
C        -12.19358       14.40362        2.92521
N        -12.92303       15.28623        2.74492
C        -11.21957       12.88725        4.50949
N        -11.15270       12.53014        5.60884
C        -10.71546       13.02005        0.69930
C        -10.22821       11.91366       -0.00839
C         -9.71289       10.89590        0.92151
O         -9.45272        9.74636        0.63693
C        -10.20018       11.84240       -1.39264
C        -10.67023       12.94150       -2.12236
C        -11.15884       14.08780       -1.43455
C        -11.16799       14.11890       -0.02190
C        -11.62474       15.18064       -2.18432
C        -11.60950       15.15147       -3.58024
C        -11.12359       14.03227       -4.24934
C        -10.65563       12.93432       -3.52552
H          4.86279        1.33932       -4.12636
H          4.69212        2.51446        0.74129
H          5.51454        0.26628        1.30039
H          6.37472       -1.92730        0.59205
H          6.68565       -2.43289       -1.81428
H          6.04056       -0.78659       -3.52755
H          0.95023        4.70661       -3.39093
H          1.67365        2.48906        3.63379
H          3.05332        2.88879        2.60619
H          2.05254        1.47778        2.22178
H         -6.91082        8.17119        8.38202
H         -5.34024        7.62411        7.78339
H         -6.76623        6.58693        7.59178
H         -8.89591       11.83168        4.20612
H         -9.80185       10.95811       -1.88546
H        -11.51652       15.02235        0.46890
H        -12.01034       16.06874       -1.68700
H        -11.97766       16.00449       -4.14556
H        -11.10858       14.01168       -5.33632
H        -10.27699       12.07014       -4.06911
