77

C          2.11773        0.62895        3.14358
C          2.77670        0.39383        1.93977
C          2.76481       -0.87785        1.34352
C          2.08213       -1.96248        1.91967
C          1.46002       -1.71385        3.15798
C          1.47784       -0.45211        3.75024
N          0.84310       -0.37010        4.92732
Se         0.15576       -1.96410        5.38798
N          0.80895       -2.64413        3.86448
C          2.03866       -3.29624        1.22273
C          2.64735       -3.57769       -0.01866
C          2.45384       -4.88967       -0.42413
C          1.73113       -5.62466        0.46683
S          1.26734       -4.72060        1.80067
C          1.62870       -6.97352       -0.01778
C          2.30751       -7.05831       -1.19501
C          2.86292       -5.74713       -1.56952
C          3.54661       -5.43724       -2.69925
C          3.86163       -6.44783       -3.68109
N          4.11685       -7.25315       -4.47137
C          3.95669       -4.08498       -2.98999
N          4.27700       -2.99347       -3.20473
C          2.29013       -8.30774       -1.75118
C          1.57800       -9.18144       -0.94851
S          0.93586       -8.42699        0.44093
C          1.42367      -10.56287       -1.28664
C          0.75951      -11.56830       -0.61991
C          0.86680      -12.81472       -1.24423
N          0.27133      -13.90908       -0.68902
C         -0.43076      -13.76544        0.47840
C         -1.10321      -14.91360        1.13411
O         -1.05447      -16.04024        0.66267
C         -1.84656      -14.67337        2.38712
C         -1.91744      -13.44888        2.92689
C         -1.27337      -12.30120        2.31367
O         -1.36729      -11.20057        2.82978
C         -0.52620      -12.48553        1.08398
N          0.07381      -11.41646        0.52607
C          1.63864      -12.75135       -2.42202
S          2.12614      -11.19027       -2.63038
C          2.05235      -13.75096       -3.39504
C          1.70887      -15.10172       -3.31124
C          2.10203      -15.78444       -4.44201
C          2.75221      -14.99869       -5.34727
S          2.90917      -13.41355       -4.83754
C          3.05461      -15.78172       -6.51322
C          2.56785      -17.03754       -6.32958
C          1.94726      -17.15745       -4.98878
C          1.40231      -18.26565       -4.42595
C          1.33484      -19.50978       -5.15386
N          1.27894      -20.50968       -5.73445
C          0.90828      -18.26812       -3.06888
N          0.51730      -18.25031       -1.97921
C          2.80064      -17.88145       -7.39902
C          3.50023      -17.23903       -8.43918
S          3.81750      -15.60952       -7.99744
C          3.92984      -17.93096       -9.69277
C          3.63195      -19.29300       -9.86586
C          4.07216      -20.00863      -10.98402
C          4.83331      -19.39462      -11.97260
C          5.09356      -18.03246      -11.83664
C          4.65186      -17.31285      -10.72912
N          4.99382      -16.01895      -10.74048
Se         5.92682      -15.61100      -12.21753
N          5.78727      -17.32370      -12.73560
H          2.12863        1.63051        3.57543
H          3.29510        1.19993        1.45191
H          3.28839       -1.00032        0.41940
H          3.21912       -2.87761       -0.58563
H          2.75291       -8.58341       -2.68248
H         -2.34314      -15.49140        2.88061
H         -2.45229      -13.26425        3.83402
H          1.14714      -15.53601       -2.51360
H          2.49930      -18.91057       -7.41109
H          3.06198      -19.82328       -9.13453
H          3.82237      -21.04884      -11.07338
H          5.19455      -19.98177      -12.81610
