110

C         13.23191        1.99616        8.12950
C         14.19965        1.03875        7.76295
C         13.89105        0.02114        6.85806
C         12.60830       -0.00272        6.34206
C         11.65012        0.94868        6.69395
C         11.93942        1.95895        7.59224
C         10.38610        0.68708        5.98452
O          9.35718        1.32686        6.04803
C         10.64833       -0.52524        5.17735
C         12.04683       -0.96764        5.39315
O         12.62119       -1.91528        4.90174
C          9.80476       -1.16947        4.36804
N          8.49194       -0.87491        4.05468
C          7.65380       -1.56069        3.21584
S          8.15092       -2.99347        2.37824
C          6.66286       -3.17296        1.61240
N          6.43140       -4.27976        0.72402
O          5.32259       -4.32122        0.17716
O          7.34063       -5.10580        0.56164
C          5.76888       -2.18634        1.95066
C          6.33138       -1.25503        2.89026
C          5.59858       -0.15105        3.45151
C          4.56364        0.46666        2.85491
C          3.83932        1.56439        3.49463
C          2.69901        1.29994        4.26832
C          2.05174        2.36525        4.88004
C          2.53413        3.68011        4.72390
C          3.65033        3.94925        3.94832
C          4.30391        2.88295        3.33256
C          1.71985        4.57601        5.50038
C          0.70797        3.84979        6.16251
C          0.81251        2.35860        5.80673
C          1.06693        1.46321        7.05060
C          2.37418        1.71332        7.81578
C         -0.40721        1.87662        4.95798
C         -1.80800        1.99955        5.55513
C         -0.18355        4.49677        7.01348
C         -0.07447        5.88472        7.19060
C          0.94675        6.58387        6.51069
C          1.84711        5.93836        5.66924
C         -1.02910        6.57569        8.08045
C         -0.99788        7.89102        8.30653
C         -1.92872        8.60928        9.14393
C         -1.89286        9.92979        9.37817
C         -2.85570       10.60841       10.20544
C         -2.61652       11.91826       10.34290
C         -1.42983       12.38384        9.64324
S         -0.70295       11.05464        8.75321
C         -0.93253       13.63717        9.69021
C         -1.50985       14.73768       10.43649
C         -0.78159       15.86241       10.41323
C          0.43398       15.74637        9.64140
S          0.54954       14.16616        8.89119
C          1.40573       16.66050        9.51282
C          1.43256       17.96714       10.12825
C          2.40246       18.35861       10.98675
C          2.07210       19.69729       11.40963
C          2.67283       20.51513       12.29555
C          2.04660       21.80827       12.49742
C          2.35937       22.83008       13.31862
C          1.40082       23.93852       13.12850
C          0.50713       23.57379       12.17943
C          0.85204       22.24276       11.76114
C          0.25204       21.42561       10.87389
C          0.85202       20.11977       10.70875
C          0.47889       19.07498        9.94966
C          1.40311       25.19986       13.83613
C          0.53197       26.20185       13.65147
H         13.49803        2.77603        8.84147
H         15.19922        1.09257        8.19163
H         14.62634       -0.72376        6.56812
H         11.19176        2.69495        7.87149
H         10.18877       -2.05998        3.87245
H          8.15752       -0.01379        4.49625
H          4.75607       -2.14550        1.56579
H          5.90181        0.19496        4.43974
H          4.21443        0.19962        1.86232
H          2.33865        0.28401        4.40107
H          4.02242        4.96130        3.82991
H          5.18585        3.08316        2.72811
H          1.07710        0.41092        6.73866
H          0.23961        1.56816        7.76255
H          3.25845        1.55998        7.18846
H          2.45498        1.00522        8.64842
H          2.42015        2.72262        8.23516
H         -0.26053        0.82073        4.69333
H         -0.42447        2.42155        4.00381
H         -1.91812        1.42609        6.47904
H         -2.54313        1.61464        4.83711
H         -2.08971        3.03890        5.74133
H         -0.95547        3.93266        7.52895
H          1.07810        7.65502        6.62187
H          2.62750        6.50779        5.17790
H         -1.78610        5.95366        8.55627
H         -0.24172        8.51255        7.83749
H         -2.71187        8.01118        9.60367
H         -3.68540       10.09417       10.66864
H         -3.24404       12.55922       10.94117
H         -2.43828       14.66300       10.98203
H         -1.06279       16.76201       10.93935
H          2.29462       16.41564        8.93264
H          3.25148       17.78634       11.32598
H          3.56509       20.24241       12.84159
H          3.18005       22.86048       14.01691
H         -0.32360       24.14117       11.79458
H         -0.63017       21.70834       10.31700
H         -0.37750       19.03023        9.29553
H          2.18566       25.32451       14.58175
H         -0.27462       26.14890       12.92826
H          0.60675       27.11540       14.23161
