120

C         13.33105       11.17116       -5.42324
S         12.41952        9.95673       -6.17059
C         11.03597       10.19333       -5.16843
C         11.38264       11.08959       -4.13081
C         12.73035       11.61818       -4.27404
C         13.38362       12.56374       -3.30718
C         12.69472       12.53672       -1.94495
C         11.17057       12.64054       -2.07353
C         10.74037       14.02387       -2.55635
O         11.47842       14.97504       -2.67472
C         10.54205       11.52460       -2.94690
C          9.74973        9.49144       -5.50575
C          8.96576        8.84703       -4.53148
C          9.29517        8.20849       -3.24287
O         10.43524        7.91545       -2.93785
N          8.10173        7.88680       -2.61974
C          7.05378        8.03726       -3.47917
O          5.86223        7.81460       -3.33841
C          7.61079        8.56458       -4.72071
C          6.94660        8.75182       -5.90554
C          7.74039        9.22061       -6.93469
C          9.10387        9.56054       -6.77752
C          9.65663        9.84465       -8.12466
O         10.80982        9.72474       -8.48051
S          8.39579       10.13152       -9.31571
C          7.21512        9.40113       -8.28484
O          6.08479        9.08178       -8.62283
C          7.90408        7.36910       -1.35790
C          8.85562        7.04630       -0.47419
C          8.61305        6.46635        0.84885
C          9.69029        5.93964        1.48597
C          9.54979        5.23337        2.74480
C         10.44561        4.57732        3.53588
C         11.96376        4.40347        3.45359
C         12.55889        4.54136        2.02548
N         13.99991        4.30876        1.90906
C         12.70141        5.32653        4.47003
N         12.50330        6.77190        4.30031
C          9.60699        3.93292        4.56972
C          9.87905        3.00247        5.50238
C          8.78941        2.40893        6.40521
C          7.41938        3.04945        6.23691
C          7.15213        3.97525        5.29815
C          8.21886        4.36533        4.41712
C          8.18969        5.13028        3.31998
C          7.08122        5.80047        2.68945
C          7.29560        6.43590        1.52261
C          9.21094        2.39527        7.86006
C          9.51536        3.48363        8.58864
C          9.99657        3.39193        9.96706
C         11.36319        3.29666       10.24153
C         12.55404        3.29369        9.36485
O         12.51176        3.27292        8.14931
N         13.65132        3.20658       10.19514
C         13.28167        3.02742       11.50155
O         13.96098        2.80576       12.48703
C         11.83561        3.16988       11.54630
C         11.01968        3.19227       12.65725
C          9.66319        3.31289       12.39535
C          9.14885        3.39140       11.09202
C          7.67796        3.47093       11.11224
O          6.95764        3.49124       10.13109
S          7.05184        3.51296       12.75193
C          8.64541        3.37422       13.43722
O          8.89550        3.33986       14.62853
C         14.96460        3.12345        9.80752
C         15.58183        3.99513        8.99998
C         16.97522        3.89416        8.68562
S         17.50912        4.64706        7.22468
C         19.10422        4.09355        7.41589
C         19.27790        3.38864        8.58437
C         18.05323        3.29395        9.34156
C         18.01685        2.56901       10.66267
C         19.40041        2.21617       11.21758
C         20.39080        1.74642       10.14627
C         19.96246        0.42718        9.53706
O         20.64269       -0.59263        9.60896
C         20.57834        2.79598        9.04752
H         14.30200       11.45645       -5.81115
H         13.37584       13.57785       -3.72501
H         14.44003       12.29381       -3.17384
H         13.09461       13.34754       -1.32128
H         12.94562       11.59965       -1.43091
H         10.73926       12.56195       -1.06741
H          9.64959       14.14172       -2.71444
H          9.55335       11.83367       -3.30360
H         10.40349       10.64835       -2.30394
H          5.89959        8.49386       -6.03527
H          6.85573        7.22500       -1.10490
H          9.90210        7.15089       -0.75584
H         10.65005        5.97224        0.99948
H         12.18496        3.37051        3.75758
H         12.41343        5.55561        1.65506
H         12.04536        3.84800        1.34822
H         14.22659        3.34195        2.12955
H         14.28373        4.45807        0.93923
H         13.78054        5.13381        4.42578
H         12.39801        5.06485        5.48919
H         11.50629        6.98072        4.31771
H         12.84762        7.05282        3.38358
H         10.87855        2.59347        5.60919
H          8.67144        1.35866        6.09980
H          6.61854        2.71960        6.89522
H          6.16381        4.40565        5.18964
H          6.10336        5.79162        3.15540
H          6.46380        6.95360        1.05692
H          9.26891        1.40440        8.30558
H          9.45899        4.47688        8.14880
H         11.41879        3.12807       13.66507
H         15.49317        2.31972       10.30137
H         15.02696        4.83944        8.59268
H         19.84625        4.32130        6.66229
H         17.46416        1.63245       10.52761
H         17.48148        3.17020       11.40745
H         19.28152        1.44579       11.98989
H         19.81856        3.09937       11.71747
H         21.36183        1.56528       10.62442
H         18.99458        0.41534        9.00745
H         21.11291        2.36196        8.19348
H         21.19957        3.61190        9.43901
