106

C          1.28248        2.22702        2.21832
C          0.31731        2.26800        3.22996
C         -0.65033        1.26827        3.33052
C         -0.65728        0.20306        2.43233
C          0.34766        0.11507        1.47085
C          1.31042        1.14404        1.34305
C          2.14598        0.86594        0.12906
C          3.36198        1.40512       -0.14226
C          4.03078        2.28269        0.76333
N          4.58444        2.97980        1.50660
C          4.09675        1.09444       -1.32160
N          4.67178        0.89392       -2.31182
C          1.43715       -0.23992       -0.60868
C          0.59186       -0.92255        0.41679
C          0.29435       -2.22977        0.60472
C          0.63863       -3.29188       -0.26492
N          0.80661       -4.23188       -0.92501
C         -0.35016       -2.70913        1.78130
N         -0.89363       -3.12227        2.72386
C          1.39988       -0.32953       -1.95576
C          0.63182       -1.22188       -2.83156
C         -0.63081       -0.87380       -3.31256
C         -1.48580        0.30363       -3.08428
O         -1.16471        1.23825       -2.37307
N         -2.64899        0.11259       -3.80467
C         -2.59340       -1.06528       -4.51330
O         -3.37019       -1.58908       -5.28917
C         -1.32707       -1.69826       -4.18802
C         -0.84773       -2.91393       -4.63471
C          0.41080       -3.26598       -4.17168
C          1.15126       -2.43743       -3.32022
C          2.44917       -3.04645       -2.98307
O          3.24109       -2.57001       -2.18860
S          2.68099       -4.58035       -3.80286
C          1.08045       -4.52132       -4.49421
O          0.57540       -5.39463       -5.17673
C         -3.71210        0.99905       -3.77838
C         -4.85176        0.83312       -4.46510
C         -5.96922        1.70526       -4.36432
S         -7.04155        1.81881       -5.74450
C         -8.20205        2.54720       -4.80795
C         -7.80262        2.80852       -3.51473
C         -6.46460        2.42175       -3.27469
C         -8.96078        3.19486       -2.70511
O         -8.99320        3.51633       -1.52966
C        -10.07915        2.94438       -3.61708
C         -9.60727        2.67856       -4.87953
S        -10.80908        2.43035       -5.99547
C        -11.92901        2.05149       -4.69448
C        -11.45524        2.63521       -3.50999
C        -13.13234        1.21702       -4.95635
C        -14.32064        1.35000       -4.22119
C        -14.73648        2.28889       -3.16932
O        -14.16076        3.34121       -2.95630
N        -15.90130        1.81089       -2.61138
C        -16.40969        0.78486       -3.36488
O        -17.44854        0.16881       -3.26096
C        -15.42059        0.50684       -4.40216
C        -15.48841       -0.43932       -5.39941
C        -14.33722       -0.57983       -6.15476
C        -13.16497        0.15711       -5.90109
C        -12.05085       -0.46797       -6.64873
O        -10.88020       -0.45213       -6.32122
S        -12.63190       -1.47039       -7.96426
C        -14.22059       -1.52385       -7.26256
O        -15.13473       -2.22688       -7.65275
C        -16.53854        2.30167       -1.49027
C        -16.08179        3.31355       -0.73640
C        -16.75365        3.78920        0.44947
C        -16.21616        4.47656        1.47876
C        -16.99879        5.22615        2.51975
C        -18.31780        5.11958        2.83130
C        -19.20391        4.17571        2.23933
N        -19.94772        3.43261        1.74172
C        -18.97374        5.97896        3.75526
N        -19.53518        6.67168        4.49927
C        -16.02675        6.21862        3.11303
C        -14.77990        6.12791        2.43801
C        -13.76905        7.05179        2.69430
C        -13.94073        7.98409        3.71622
C        -15.11367        7.99460        4.46850
C        -16.16195        7.12317        4.16329
C        -14.78263        4.88182        1.61172
C        -13.66921        4.14267        1.36507
C        -12.34020        4.65778        1.46624
N        -11.26446        5.08402        1.52023
C        -13.73623        2.74013        1.10265
N        -13.76682        1.59294        0.93975
H          1.96636        3.06534        2.14334
H          0.30154        3.09954        3.93077
H         -1.41315        1.32364        4.10456
H         -1.46120       -0.51961        2.51016
H          1.96244        0.38523       -2.55695
H         -1.42427       -3.54803       -5.30300
H         -3.56776        1.86655       -3.13633
H         -4.99576       -0.03122       -5.10826
H         -5.98431        2.45848       -2.30396
H        -11.97413        2.63898       -2.56034
H        -16.37358       -1.04811       -5.56130
H        -17.44733        1.76608       -1.21229
H        -15.17631        3.83918       -1.01306
H        -17.81937        3.60862        0.37811
H        -12.83403        7.07337        2.14551
H        -13.14251        8.68649        3.94778
H        -15.21885        8.69423        5.29550
H        -17.04288        7.18285        4.78980
