122

C          2.23108       -6.32522        8.27400
C          1.38148       -5.25104        8.41194
C          1.68794       -4.25417        9.33524
C          2.88770       -4.21732       10.07132
C          3.76030       -5.34351        9.90452
C          3.37934       -6.40133        9.02522
N          4.08718       -7.52646        8.86641
C          5.20061       -7.67555        9.60836
C          5.62868       -6.65721       10.45348
N          4.94529       -5.47477       10.56107
C          6.84763       -6.79364       11.31510
C          5.89098       -8.99790        9.47505
C          3.25324       -3.02077       10.94479
C          2.98590       -1.66231       10.64202
C          1.96137       -0.97873        9.81556
O          0.98451       -1.52763        9.34548
N          2.19436        0.37906        9.85161
C          3.19403        0.67580       10.74880
O          3.61408        1.75502       11.11974
C          3.66027       -0.59915       11.27136
C          4.58771       -0.77288       12.27937
C          4.73614       -2.07441       12.70725
C          4.05415       -3.15088       12.10738
C          4.13877       -4.32535       12.98731
O          3.29596       -5.20639       13.03520
S          5.42786       -4.16803       14.16846
C          5.56840       -2.46213       13.84106
O          6.26549       -1.68427       14.46956
C          1.43618        1.35062        9.22773
C          0.39619        1.12724        8.40922
C         -0.40929        2.16330        7.78070
C         -1.68770        1.84790        7.43888
C         -2.53467        2.81554        6.76378
C         -3.83539        2.78291        6.35151
C         -4.94934        1.75427        6.56313
C         -5.02621        0.67453        5.44929
N         -5.32252        1.19638        4.11107
C         -4.88684        1.05824        7.95871
N         -5.96531        0.09591        8.22016
C         -4.01677        4.06393        5.62846
C         -5.03865        4.58119        4.92343
C         -4.93489        5.92634        4.18652
C         -3.59862        6.63123        4.36070
C         -2.60130        6.13853        5.10766
C         -2.78705        4.84657        5.70293
C         -1.91530        4.10523        6.38960
C         -0.55715        4.40966        6.75125
C          0.14730        3.47826        7.41187
C         -6.09066        6.82359        4.57915
C         -6.03876        7.90069        5.38562
C         -7.21357        8.65279        5.83928
C         -7.17288       10.05389        5.94378
C         -6.11769       11.05865        5.68252
O         -5.01092       10.77854        5.25440
N         -6.63048       12.29987        6.01494
C         -7.93495       12.18771        6.42866
O         -8.75723       13.01187        6.78609
C         -8.27407       10.77608        6.38699
C         -9.47297       10.19414        6.73982
C         -9.51502        8.81074        6.66428
C         -8.41625        8.04169        6.26151
C         -8.71859        6.60064        6.42767
O         -7.92841        5.67880        6.38721
S        -10.41261        6.32784        6.79310
C        -10.69462        8.02568        7.00351
O        -11.74490        8.51618        7.37738
C         -5.90167       13.47611        5.94028
C         -6.34959       14.69151        6.30250
C         -5.58975       15.96314        6.26446
C         -6.33924       17.13162        6.03210
C         -5.72468       18.37637        6.01301
C         -4.35428       18.46064        6.23006
C         -3.59024       17.32770        6.47993
C         -4.20772       16.05629        6.52052
N         -3.46434       14.96191        6.80845
C         -2.13544       15.11855        7.01413
C         -1.53864       16.37188        6.93750
N         -2.26869       17.48440        6.68089
C         -0.06423       16.56238        7.11570
C         -1.36129       13.87126        7.30603
H          1.97890       -7.13320        7.59145
H          0.46648       -5.19600        7.82678
H          0.90977       -3.52078        9.46552
H          7.27164       -7.80136       11.30036
H          6.59082       -6.57154       12.35476
H          7.61789       -6.09469       10.97850
H          5.40637       -9.61252        8.70732
H          5.84133       -9.55149       10.41796
H          6.93501       -8.86414        9.17841
H          5.08302        0.07066       12.75425
H          1.73813        2.36836        9.46898
H          0.07644        0.11659        8.17164
H         -2.07215        0.85519        7.62684
H         -5.90436        2.29986        6.55957
H         -5.82768       -0.03638        5.68385
H         -4.09493        0.09852        5.41029
H         -6.13165        1.81169        4.16695
H         -5.60399        0.41873        3.51463
H         -4.89848        1.81441        8.75198
H         -3.96639        0.48609        8.06339
H         -6.85668        0.58233        8.29779
H         -5.80203       -0.35056        9.12353
H         -5.96913        4.03487        4.82168
H         -5.03523        5.71408        3.11343
H         -3.46772        7.59186        3.86967
H         -1.67369        6.67990        5.24242
H         -0.11735        5.36092        6.48197
H          1.18338        3.68610        7.65812
H         -7.04393        6.47776        4.18545
H         -5.08019        8.25182        5.76602
H        -10.31977       10.78524        7.07889
H         -4.88540       13.34603        5.56836
H         -7.36395       14.81703        6.67430
H         -7.41443       17.07350        5.86476
H         -6.30888       19.27557        5.83385
H         -3.86651       19.43122        6.20977
H          0.48471       16.00074        6.35338
H          0.24895       16.22934        8.10954
H          0.20611       17.61837        7.01280
H         -2.02958       13.00439        7.35413
H         -0.85144       13.95203        8.27056
H         -0.62691       13.68503        6.51706
