106

C         -0.51718        4.55148       -2.78300
C          0.75586        4.22503       -2.45959
C          1.84399        4.41779       -3.35647
N          2.72751        4.55301       -4.09605
C          1.06292        3.54965       -1.24117
N          1.27985        2.97477       -0.25296
C         -1.02614        5.06720       -4.08130
C         -2.38218        4.71042       -4.18732
C         -3.21406        5.15752       -5.19801
C         -2.69179        6.08242       -6.10557
C         -1.31997        6.46714       -6.02446
C         -0.47942        5.91728       -5.03094
C         -0.84818        7.45970       -6.89626
C         -1.71069        8.09232       -7.79530
C         -3.04784        7.71304       -7.86868
C         -3.53138        6.69903       -7.04310
C         -2.83603        4.04343       -2.95300
O         -3.92742        3.56166       -2.73741
C         -1.70993        4.23912       -1.98870
C         -2.05341        4.43226       -0.70860
C         -1.22056        5.18282        0.25431
N         -0.40753        6.16430       -0.05972
C          0.04537        6.58909        1.15220
C         -0.53505        5.79844        2.20740
C         -0.03157        6.28252        3.51602
O         -0.27391        5.87938        4.63117
C          0.85451        7.39879        3.11251
C          0.84117        7.51759        1.67559
N          1.64464        8.54337        1.29106
C          2.10543        8.99246        2.42688
C          1.64970        8.30966        3.65694
C         -1.35579        4.88284        1.71196
C         -2.15172        3.88390        2.34276
C         -1.63363        2.95067        3.15418
C         -2.46287        1.96485        3.73982
N         -2.06224        1.44250        4.95053
C         -2.97839        0.49908        5.32744
C         -3.26091       -0.44723        6.34107
C         -4.43216       -1.07371        5.93740
N         -4.88242       -0.47891        4.77731
C         -3.95425        0.44845        4.38996
C         -3.65045        1.36166        3.35265
C         -5.19794       -2.14745        6.46291
C         -4.59322       -3.16531        7.09615
C         -5.39203       -4.29563        7.63276
N         -6.70050       -4.37028        7.56658
C         -6.98045       -5.55807        8.15530
C         -5.76608       -6.21569        8.57874
C         -6.14273       -7.51503        9.21468
O         -5.45874       -8.38480        9.70580
C         -7.61611       -7.50100        9.12825
C         -8.04098       -6.29248        8.48031
N         -9.39769       -6.26507        8.40842
C         -9.74131       -7.38699        8.97816
C         -8.65037       -8.25432        9.47237
C         -4.70149       -5.46196        8.30506
C         -3.30153       -5.64024        8.58151
C         -2.77491       -6.71172        9.19262
C         -1.36894       -6.87351        9.47891
C         -0.61519       -7.90336        9.06223
C          0.78496       -8.25553        9.38510
C          1.77814       -7.39896        9.72821
C          3.12975       -7.80992        9.88174
N          4.24034       -8.14047       10.00600
C          1.56737       -5.99882        9.88454
N          1.39219       -4.85819       10.01351
C          0.94435       -9.70544        9.05593
C         -0.18612      -10.12171        8.34176
C         -1.16019       -9.02953        8.22535
O         -2.17167       -9.06401        7.55622
C         -0.35545      -11.40638        7.84930
C          0.65710      -12.34207        8.07963
C          1.81131      -11.96392        8.82040
C          1.93387      -10.64640        9.32092
C          2.82029      -12.91890        9.02904
C          2.70409      -14.21161        8.51160
C          1.56889      -14.57742        7.79480
C          0.54767      -13.65072        7.58651
H         -4.26527        4.88291       -5.19924
H          0.55220        6.25203       -4.96225
H          0.18894        7.78689       -6.85231
H         -1.34098        8.89688       -8.42645
H         -3.72114        8.21942       -8.55602
H         -4.58373        6.42871       -7.10690
H         -3.06261        4.20170       -0.37434
H          2.80321        9.83899        2.51783
H          1.90546        8.51366        4.67744
H         -3.21849        3.91164        2.13478
H         -0.56563        2.93522        3.36697
H         -1.24684        1.68804        5.49869
H         -2.68456       -0.65961        7.23028
H         -5.71776       -0.68996        4.24553
H         -4.20512        1.54166        2.44254
H         -6.27779       -2.14666        6.32287
H         -3.51788       -3.19319        7.19984
H        -10.78212       -7.71747        9.11269
H         -8.70638       -9.20292        9.96657
H         -2.62700       -4.84997        8.26494
H         -3.38850       -7.54771        9.50983
H         -0.98776       -6.11638       10.15770
H         -1.25799      -11.66203        7.30059
H          2.81182      -10.40237        9.91093
H          3.71941      -12.66161        9.58623
H          3.50328      -14.93293        8.66541
H          1.47856      -15.58374        7.39295
H         -0.33338      -13.95838        7.02660
