67

C          2.13221       -0.75981        4.36280
C          3.07170       -1.22987        3.47697
C          2.55797       -2.29064        2.67490
C          1.23976       -2.60927        2.96675
S          0.64770       -1.59265        4.22256
C          0.41313       -3.63439        2.35419
C         -0.92616       -3.95405        2.61458
C         -1.37189       -5.02803        1.80687
C         -0.37067       -5.46908        0.97663
S          1.07197       -4.66949        1.11673
C         -0.85814       -6.52593        0.18607
C         -2.16899       -6.77318        0.51048
C         -2.57711       -5.83099        1.56414
C         -3.77625       -5.72209        2.17063
C         -4.01900       -4.74811        3.18075
N         -4.21286       -3.94553        3.99656
C         -4.86142       -6.57750        1.83948
N         -5.75240       -7.27294        1.57753
C         -2.69275       -7.83071       -0.27899
C         -1.73524       -8.36023       -1.16582
S         -0.24216       -7.45674       -1.03097
C         -1.84732       -9.46808       -2.16676
C         -3.04167       -9.78325       -2.85778
C         -3.12811      -10.86682       -3.81967
N         -4.30868      -11.10907       -4.42866
C         -5.36778      -10.32480       -4.16344
C         -5.28663       -9.30596       -3.25749
N         -4.13850       -9.03000       -2.60662
C         -2.02704      -11.69368       -4.15752
C         -0.80701      -11.40378       -3.48858
C         -0.71575      -10.28861       -2.47508
N          0.51611      -10.21218       -1.93839
S          1.47134      -11.34003       -2.65867
N          0.36930      -12.03442       -3.66572
C         -2.04356      -12.80387       -5.15583
C         -1.34541      -14.02622       -5.17207
C         -1.61222      -14.77858       -6.34404
C         -2.49020      -14.11265       -7.16390
S         -2.98135      -12.63024       -6.62031
C         -2.70227      -14.86987       -8.33161
C         -1.95095      -16.01946       -8.26526
C         -1.22587      -16.04149       -6.98980
C         -0.40394      -17.00397       -6.52509
C          0.22793      -16.89902       -5.25526
N          0.74387      -16.82485       -4.21998
C         -0.13443      -18.18593       -7.27503
N          0.08849      -19.14411       -7.88503
C         -2.09547      -16.79242       -9.44117
C         -2.96312      -16.17800      -10.35031
S         -3.58794      -14.68162       -9.71985
C         -3.35419      -16.63465      -11.66689
C         -3.73251      -15.86123      -12.75217
C         -4.06209      -16.63795      -13.90140
C         -3.92762      -17.98563      -13.66305
S         -3.40652      -18.30486      -12.06666
H          2.24595        0.03453        5.08772
H          4.07866       -0.83673        3.40448
H          3.14791       -2.79291        1.91715
H         -1.51919       -3.42447        3.35071
H         -3.70813       -8.20697       -0.22950
H         -6.27720      -10.54772       -4.70923
H         -6.14039       -8.68077       -3.02307
H         -0.66715      -14.32197       -4.37957
H         -1.59691      -17.73006       -9.65699
H         -3.76779      -14.77819      -12.73527
H         -4.38061      -16.22617      -14.85146
H         -4.11010      -18.80039      -14.35047
