93

C         -1.02913        5.85661        4.15023
C          0.08734        5.10782        3.97040
C          1.28083        5.28268        4.74056
N          2.24548        5.41627        5.36495
C          0.13994        4.02806        3.04247
N          0.17293        3.14908        2.28403
C         -1.21226        6.89908        5.20600
C         -2.57890        7.12748        5.35158
C         -3.13810        8.04282        6.23267
C         -2.25950        8.80205        7.02716
C         -0.87864        8.59005        6.89562
C         -0.33230        7.64480        5.98459
S          0.00354        9.62303        7.96614
C         -1.41148       10.33011        8.55660
C         -2.54930        9.82601        7.98882
Br        -1.42548       11.67599        9.85852
C         -3.35529        6.32711        4.40790
O         -4.56505        6.25523        4.44044
C         -2.35934        5.68162        3.49016
C         -2.62797        5.25477        2.24281
C         -3.90990        5.19130        1.60838
C         -5.17875        4.86257        2.06839
C         -6.21441        4.76609        1.06072
C         -7.61168        4.38451        1.05231
C         -8.29792        4.42544       -0.21943
C         -7.57021        4.88421       -1.31801
N         -6.27995        5.22226       -1.31627
C         -5.64429        5.13822       -0.14711
S         -3.99058        5.49919       -0.07846
S         -8.44878        5.01739       -2.77168
C         -9.82880        4.42207       -2.01838
C         -9.60486        4.07981       -0.71226
F        -10.53037        3.49814        0.00284
F        -10.97757        4.27593       -2.62580
C         -8.32158        3.97819        2.33571
C         -9.62355        4.39040        2.72773
C        -10.28698        3.94208        3.95632
N        -11.57918        4.26546        4.14170
C        -12.23779        4.98530        3.21900
C        -11.59648        5.46408        2.11199
N        -10.28495        5.21554        1.88785
F        -12.27824        6.14964        1.18445
F        -13.54465        5.20879        3.41269
C         -9.66017        3.16682        4.97341
C         -8.34747        2.73885        4.62470
C         -7.70802        3.09363        3.28018
N         -6.53879        2.45079        3.10928
S         -6.15645        1.69197        4.51880
N         -7.52157        1.99858        5.38681
C        -10.25958        2.79385        6.32565
C         -9.74527        2.09143        7.42756
C        -10.58517        2.10840        8.61869
C        -10.46070        1.65177        9.95246
C        -11.35516        2.08235       10.95565
C        -12.48032        2.76281       10.50953
N        -12.72270        3.08241        9.22942
C        -11.75286        2.79347        8.34577
S        -11.87643        3.27019        6.74046
S        -13.57369        3.17600       11.75090
C        -12.55248        2.50334       12.92173
C        -11.41358        1.97407       12.37930
F        -10.48642        1.39395       13.09475
F        -12.82487        2.48247       14.20074
C         -9.32314        0.82249       10.34309
C         -9.22432       -0.51750       10.32358
C        -10.08180       -1.64358        9.91055
C        -11.40657       -1.84877       10.11933
C        -12.08295       -3.03686        9.71472
N        -12.64562       -3.99263        9.38630
C        -12.24877       -1.00209       10.89309
N        -13.01739       -0.44438       11.55506
C         -9.14923       -2.75545        9.52768
C         -7.87846       -2.45569       10.02269
C         -7.84651       -1.08389       10.55279
O         -6.87664       -0.52305       11.01952
C         -6.80551       -3.34169        9.98869
C         -7.02756       -4.62312        9.43119
C         -8.28221       -4.90205        8.87023
C         -9.34386       -3.96697        8.87393
S         -8.34196       -6.50204        8.22357
C         -6.76710       -6.82993        8.72940
C         -6.15548       -5.76229        9.33190
Br        -5.94450       -8.49474        8.48637
H         -4.21533        8.17872        6.27997
H          0.74656        7.55693        5.91827
H         -3.55061       10.16027        8.23376
H         -1.79904        4.97617        1.59460
H         -5.35499        4.62856        3.10638
H         -8.75636        1.65068        7.44468
H         -8.45530        1.41294       10.64775
H         -5.84134       -3.06337       10.40592
H        -10.27797       -4.24718        8.40156
H         -5.14081       -5.78535        9.71044
