82

C         -3.88444        3.60103       -2.30956
N         -2.63945        3.79673       -2.76831
C         -1.88713        2.69097       -2.89531
C         -2.33601        1.42888       -2.58344
C         -3.63445        1.34209       -2.11923
N         -4.42800        2.42135       -1.97465
C         -4.18834        0.03008       -1.75400
C         -5.44001       -0.16992       -1.30684
C         -5.90025       -1.47559       -0.96311
C         -5.18736       -2.57815       -0.48045
C         -6.03080       -3.68406       -0.25441
C         -7.34011       -3.40067       -0.57131
S         -7.59845       -1.85256       -1.11790
C         -8.12973       -4.54608       -0.32077
C         -7.31796       -5.55146        0.15653
C         -5.93718       -5.06157        0.23079
C         -4.83614       -5.71447        0.65412
C         -4.90286       -7.06035        1.10821
N         -4.96320       -8.15700        1.47994
C         -3.55184       -5.09599        0.67437
N         -2.51092       -4.59069        0.68733
C         -8.05375       -6.73051        0.42408
C         -9.41428       -6.56647        0.13687
S         -9.73713       -4.95143       -0.45486
C        -10.49597       -7.50192        0.26871
C        -11.13873       -7.57005        1.45171
C        -12.25226       -8.46204        1.66259
C        -12.77961       -9.32851        0.60046
C        -12.26461       -9.40482       -0.62590
S        -10.87230       -8.48467       -1.13841
C        -13.87036      -10.03098        1.15643
C        -14.02565       -9.67243        2.47409
C        -15.09898      -10.32284        3.10666
C        -15.73664      -11.16416        2.20367
S        -14.99887      -11.14501        0.63047
C        -13.01181       -8.68786        2.77485
C        -12.84133       -8.08109        4.06907
C        -12.89551       -6.75760        4.28183
C        -12.69025       -6.21415        5.57915
C        -11.93225       -6.70700        6.64546
C        -11.97688       -5.84168        7.75367
C        -12.76209       -4.74269        7.49748
S        -13.43993       -4.69593        5.98453
C        -12.76574       -3.91424        8.63360
C        -11.97935       -4.48317        9.61017
C        -11.43196       -5.74382        9.10848
C        -10.62098       -6.61535        9.73871
C        -10.16687       -6.38958       11.06786
N         -9.79389       -6.21377       12.15044
C        -10.18166       -7.81197        9.11092
N         -9.83037       -8.78967        8.58972
C        -11.95030       -3.68501       10.77317
C        -12.73718       -2.53746       10.62062
S        -13.47193       -2.47480        9.04219
C        -12.99283       -1.45808       11.57806
N        -12.42549       -1.57813       12.79039
C        -12.67412       -0.57378       13.64936
C        -13.45763        0.51579       13.34319
C        -13.98557        0.54190       12.07029
N        -13.76305       -0.43551       11.17617
C        -14.83232        1.65876       11.63468
C        -14.93885        2.05324       10.35781
H         -4.50988        4.47990       -2.19815
H         -0.87895        2.85175       -3.26609
H         -1.69667        0.56434       -2.69849
H         -3.50900       -0.80726       -1.88129
H         -6.12950        0.66718       -1.21028
H         -4.12014       -2.53850       -0.29864
H         -7.65488       -7.66477        0.80030
H        -10.84496       -6.92945        2.27726
H        -12.70320      -10.07321       -1.36067
H        -15.41477      -10.19699        4.13460
H        -16.60147      -11.79159        2.37552
H        -12.68316       -8.78022        4.88700
H        -13.10693       -6.07397        3.46108
H        -11.37743       -7.63468        6.57876
H        -11.41008       -3.89222       11.69018
H        -12.20583       -0.67077       14.62480
H        -13.62296        1.31038       14.05739
H        -15.38716        2.18232       12.40653
H        -14.38783        1.56229        9.55953
H        -15.57494        2.88775       10.08322
