88

C          0.70243        3.79438        0.38722
C          0.54812        4.26608        1.70641
C          1.16990        3.61814        2.77772
C          1.93184        2.50116        2.49027
C          2.08873        2.03809        1.18742
C          1.48597        2.66935        0.11489
C          2.92500        0.83356        1.16902
O          3.32057        0.27555        0.16864
C          3.19511        0.52024        2.59900
C          2.63210        1.62118        3.42999
O          2.69437        1.75981        4.63347
C          3.77460       -0.52785        3.19704
C          4.22992       -1.70301        2.53672
C          3.73274       -2.37606        1.41755
C          4.49644       -3.51950        1.11577
C          5.51934       -3.69609        2.01911
S          5.59238       -2.55746        3.22186
C          6.26330       -4.83473        1.64973
C          5.71054       -5.36716        0.50894
C          4.54346       -4.58025        0.11178
C          3.70267       -4.78909       -0.92180
C          3.87656       -5.86826       -1.83251
N          4.01135       -6.72968       -2.59846
C          2.58447       -3.94177       -1.16035
N          1.65979       -3.26499       -1.34707
C          6.44588       -6.47572        0.05623
C          7.50105       -6.79989        0.91931
S          7.60759       -5.62883        2.21607
C          8.47901       -7.84821        0.86542
C          8.28177       -9.05897        0.31692
C          9.31370      -10.06109        0.12865
C          8.98146      -10.99636       -0.78056
C          7.67168      -10.76537       -1.37011
S          6.78249       -9.65021       -0.34657
C          7.21912      -11.18209       -2.56769
C          7.89290      -12.05663       -3.50707
C          7.35552      -12.04287       -4.73787
C          6.24453      -11.12179       -4.87111
S          5.74186      -10.54914       -3.30307
C          5.74294      -10.70865       -6.04664
C          4.82775       -9.62013       -6.16132
C          5.14098       -8.27627       -6.37814
C          3.97907       -7.48380       -6.44729
C          2.83663       -8.23664       -6.27104
S          3.10785       -9.86716       -6.07279
C          1.71382       -7.38030       -6.35006
C          2.15696       -6.10308       -6.60585
C          3.61337       -6.08407       -6.65887
C          4.42323       -5.02289       -6.84593
C          3.91566       -3.70792       -7.06295
N          3.53297       -2.63231       -7.27853
C          5.83481       -5.15837       -6.85708
N          6.99245       -5.26145       -6.87862
C          1.09292       -5.20270       -6.76874
C         -0.13960       -5.80076       -6.50459
S          0.06106       -7.51700       -6.21748
C         -1.45166       -5.24017       -6.51331
C         -1.73347       -3.96951       -6.18743
C         -3.10010       -3.41139       -6.40353
O         -4.09554       -3.99280       -6.78129
C         -2.98983       -1.97581       -6.11138
C         -3.95684       -0.99523       -6.23903
C         -3.58882        0.32050       -5.93412
C         -2.27978        0.62795       -5.51270
C         -1.31713       -0.37552       -5.38485
C         -1.69998       -1.66895       -5.69167
C         -0.87260       -2.87541       -5.65341
O          0.26110       -2.91932       -5.22767
H          0.19953        4.31044       -0.42883
H         -0.07045        5.14231        1.89310
H          1.04930        3.96718        3.79880
H          1.60692        2.29313       -0.89676
H          3.89245       -0.50100        4.28070
H          2.87237       -2.03008        0.85838
H          6.23199       -7.02927       -0.84826
H          9.46480       -7.61398        1.26289
H         10.26989      -10.01720        0.63222
H          9.64455      -11.78882       -1.09552
H          8.75960      -12.64578       -3.24314
H          7.74680      -12.60793       -5.57255
H          6.14258      -11.10589       -6.97499
H          6.16344       -7.92946       -6.46423
H          1.19239       -4.15843       -7.03290
H         -2.26424       -5.88408       -6.84926
H         -4.96124       -1.23705       -6.57290
H         -4.32076        1.12103       -6.02791
H         -2.01420        1.65939       -5.28750
H         -0.30227       -0.15405       -5.06652
