93

C          9.45096        8.01982       -1.89288
C          9.67579        9.38953       -1.95436
C          8.52930       10.05623       -2.43320
C          7.51368        9.17391       -2.71697
S          7.86198        7.57617       -2.41669
C          6.39789        9.89852       -3.19192
C          6.70016       11.23672       -3.19611
C          8.07717       11.42289       -2.72956
C          8.79317       12.56021       -2.59069
C          8.28586       13.83847       -2.89278
N          7.92048       14.93036       -3.10967
C         10.13597       12.52956       -2.11023
N         11.22465       12.50257       -1.71728
C          5.56765       12.00170       -3.60912
C          4.47550       11.19449       -3.94712
S          4.88708        9.49974       -3.72965
C          3.13317       11.54704       -4.42214
S          1.78497       10.62112       -3.86322
C          2.67702       12.57127       -5.24710
C          3.49688       13.66700       -5.78990
O          4.69681       13.81445       -5.60429
C          2.73273       14.59984       -6.59637
C          3.19116       15.76745       -7.16865
N          2.16221       16.31417       -7.88491
C          2.26704       17.54141       -8.65654
C          2.73643       17.27775      -10.07611
C          1.04193       15.52813       -7.75924
C          1.35721       14.46087       -6.93555
C          0.50896       13.36716       -6.46922
O         -0.67946       13.27378       -6.76359
C          1.23456       12.42936       -5.57201
C          0.65808       11.31685       -4.95786
C         -0.69044       10.82342       -5.03698
C         -1.11967        9.54127       -5.07599
C         -0.37962        8.25111       -5.04767
C          0.80241        7.95401       -5.71208
C          1.60446        6.75893       -5.43746
N          2.75697        6.62751       -6.13647
C          3.11688        7.60405       -7.01318
C          2.33727        8.71024       -7.24772
N          1.16772        8.87330       -6.62494
F          2.74634        9.68615       -8.07197
F          4.29033        7.47983       -7.64664
C          1.24418        5.75048       -4.45925
C         -0.09725        5.93179       -3.97676
C         -0.92931        7.16567       -4.32948
N         -2.19979        7.09322       -3.89144
S         -2.36627        5.63783       -3.13828
N         -0.79256        5.13020       -3.15354
C          2.22842        4.67115       -3.92861
C          2.02060        3.32766       -3.47763
O          0.83579        2.62740       -3.44971
C         -0.11438        2.71537       -4.49335
C          3.09972        2.52694       -2.86259
O          2.76433        1.21801       -2.53598
C          2.89239        0.82125       -1.16909
C          4.42676        3.00068       -2.76098
C          4.62857        4.29889       -3.23440
C          3.58046        5.08795       -3.77513
C          5.58500        2.28362       -2.13848
C          6.55910        2.80905       -1.27419
C          7.19903        1.75342       -0.56213
C          6.82590        0.54086       -1.06191
S          5.93793        0.59925       -2.49946
C          7.11323       -0.54772       -0.26101
C          7.84915       -0.29001        0.86591
S          8.19358        1.40313        0.80823
C          8.01010       -1.46209        1.65579
C          7.32807       -2.51779        1.06884
S          6.56923       -2.13392       -0.44706
H         10.13853        7.25096       -1.56604
H         10.62034        9.83013       -1.65939
H          5.55571       13.08215       -3.65314
H          4.16955       16.23193       -7.12853
H          2.97342       18.20001       -8.13695
H          1.28680       18.02855       -8.64865
H          3.72846       16.81268      -10.08421
H          2.79565       18.21450      -10.63825
H          2.04928       16.60454      -10.59873
H          0.11734       15.78644       -8.26124
H         -1.46410       11.59099       -5.08879
H         -2.20537        9.41717       -5.09036
H         -1.09245        2.83543       -4.01575
H         -0.16721        1.77096       -5.04079
H          0.05651        3.51685       -5.21114
H          2.47641        1.54476       -0.46529
H          3.91676        0.59655       -0.87876
H          2.35939       -0.13025       -1.05632
H          5.62366        4.74169       -3.19950
H          3.87830        6.09294       -4.07486
H          6.66750        3.85637       -1.02420
H          8.54378       -1.52633        2.59616
H          7.23131       -3.52511        1.45485
