125

C         -2.35861       -0.43258       -9.73283
C         -1.43411       -1.14209      -10.42240
C         -1.74200       -2.36537      -11.07309
N         -1.99422       -3.37547      -11.59362
C         -0.09425       -0.68792      -10.59718
N          1.00286       -0.32453      -10.72654
C         -3.81622       -0.72801       -9.59435
C         -4.46728        0.44206       -9.18462
C         -5.82472        0.52103       -8.90228
C         -6.58037       -0.66800       -8.99886
C         -5.93594       -1.84868       -9.40231
C         -4.55259       -1.89954       -9.71458
S         -7.04113       -3.17798       -9.43142
C         -8.31823       -2.21252       -8.89811
C         -7.96644       -0.90430       -8.70294
Br       -10.04607       -2.86970       -8.59619
C         -3.49533        1.52065       -8.94517
O         -3.74150        2.66279       -8.61418
C         -2.15621        0.87665       -9.09562
C         -1.08249        1.37532       -8.46960
N         -0.98341        2.54330       -7.74480
C          0.06606        3.00025       -6.99820
S          1.64057        2.27718       -7.05484
C          2.28377        3.43128       -6.01677
N          3.66541        3.36539       -5.67994
O          3.93242        3.26065       -4.47662
O          4.47775        3.45672       -6.60825
C          1.36633        4.33830       -5.55843
C          0.07123        4.08636       -6.12216
C         -1.04948        4.92988       -5.81277
C         -2.33660        4.55188       -5.71813
C         -3.39902        5.46328       -5.43585
S         -3.29289        7.12319       -5.87172
C         -4.85347        7.47516       -5.29471
C         -5.47290        6.35685       -4.78307
C         -4.63871        5.18784       -4.86671
C         -5.12017        3.83270       -4.40731
C         -6.47286        3.86817       -3.66241
C         -7.01407        2.44820       -3.64045
O         -6.35634        1.49855       -3.23326
O         -8.26326        2.27387       -4.12116
C         -7.42511        4.89387       -4.30039
O         -8.70297        4.81774       -3.65570
C         -6.85064        6.31107       -4.20711
C         -5.33457        8.79879       -5.39646
C         -5.98901        9.17098       -6.50339
C         -6.44596       10.53854       -6.74419
C         -7.57984       10.71820       -7.54386
C         -7.90455       11.99490       -7.96669
C         -7.12743       13.09801       -7.54767
C         -6.05774       12.94234       -6.68473
C         -5.70658       11.65170       -6.30085
C         -7.58706       14.28591       -8.21828
C         -8.65859       13.94572       -9.06565
C         -9.02835       12.45503       -8.90607
C         -8.98059       11.75963      -10.30162
C         -9.37477       10.28405      -10.36967
C        -10.42991       12.32153       -8.25048
C        -10.58389       12.95121       -6.86483
C         -9.21277       14.89295       -9.91132
C         -8.67283       16.18828       -9.92652
C         -7.63947       16.52979       -9.03081
C         -7.08903       15.57690       -8.17282
C         -9.16186       17.21473      -10.85364
C         -9.63929       16.93275      -12.07629
C        -10.10151       17.94691      -12.98683
C         -9.38137       18.95329      -13.49656
C         -7.97556       19.36252      -13.37302
C         -6.88552       18.55554      -13.40043
C         -5.55296       19.04968      -13.33182
N         -4.46576       19.46209      -13.26132
C         -6.98649       17.15276      -13.64375
N         -7.03538       16.02210      -13.89714
C         -7.96320       20.84489      -13.53714
C         -9.20540       21.23537      -14.05220
C        -10.13068       20.09283      -14.10745
O        -11.27718       20.11113      -14.50322
C         -9.51654       22.53459      -14.42766
C         -8.50414       23.50976      -14.29525
C         -7.27283       23.13587      -13.73364
C         -6.98998       21.81064      -13.32083
S         -6.19404       24.48244      -13.64680
C         -7.31233       25.50571      -14.38715
C         -8.50684       24.89760      -14.66478
Br        -6.94873       27.29753      -14.79124
H         -6.27133        1.45111       -8.56190
H         -4.11065       -2.85314       -9.98083
H         -8.65003       -0.14125       -8.35027
H         -0.16618        0.79659       -8.44228
H         -1.83795        3.10939       -7.78757
H          1.60309        5.13959       -4.86728
H         -0.78872        5.96713       -5.60599
H         -2.61367        3.50912       -5.84057
H         -4.36098        3.38075       -3.75580
H         -5.20168        3.18511       -5.29147
H         -6.31650        4.14863       -2.61072
H         -8.76985        3.11608       -4.17003
H         -7.59668        4.63664       -5.35261
H         -9.22878        5.59625       -3.92476
H         -6.82369        6.65212       -3.16430
H         -7.52114        6.99967       -4.73557
H         -5.13493        9.47999       -4.57703
H         -6.16803        8.46143       -7.31085
H         -8.16777        9.86056       -7.84413
H         -5.46721       13.78892       -6.35310
H         -4.81862       11.52142       -5.68753
H         -7.97692       11.86362      -10.73477
H         -9.65950       12.28505      -10.98671
H         -8.71769        9.64382       -9.78254
H         -9.29696        9.92766      -11.40248
H        -10.40647       10.11927      -10.04684
H        -10.69648       11.26350       -8.14858
H        -11.18301       12.77187       -8.91100
H         -9.94217       12.45712       -6.12882
H        -11.61763       12.84172       -6.52111
H        -10.35110       14.01984       -6.86920
H        -10.03480       14.61831      -10.56343
H         -7.22966       17.53747       -9.01592
H         -6.26982       15.84245       -7.51300
H         -9.09265       18.24244      -10.50424
H         -9.72423       15.90935      -12.43808
H        -11.16867       17.88401      -13.20757
H        -10.49685       22.77701      -14.82887
H         -6.02376       21.59346      -12.87985
H         -9.34657       25.39820      -15.13160
