88

C         -6.55165       -0.31384        3.81071
C         -7.72528       -0.37592        4.48637
C         -7.90423       -1.16321        5.66199
N         -8.05599       -1.80137        6.62259
C         -8.86116        0.38715        4.10056
N         -9.79090        1.00351        3.77110
C         -5.27027       -0.96226        4.22157
C         -4.21968       -0.31980        3.56326
C         -2.88480       -0.69104        3.68610
C         -2.58231       -1.79877        4.51081
C         -3.63263       -2.44759        5.17778
C         -4.98562       -2.04626        5.04512
S         -3.04745       -3.76392        6.13239
C         -1.45561       -3.49311        5.64388
C         -1.32260       -2.43525        4.78461
Br        -0.01626       -4.54399        6.22022
C         -4.73126        0.72439        2.66070
O         -4.04678        1.53404        2.07338
C         -6.22568        0.54746        2.64246
C         -7.01693        0.95074        1.63009
C         -6.56267        1.70268        0.50243
S         -6.59569        3.42034        0.59015
C         -6.07161        3.66635       -1.05230
C         -5.76241        2.43203       -1.60535
C         -6.13249        1.31135       -0.75011
C         -6.04924       -0.03121       -1.14539
C         -5.52556       -0.17275       -2.44419
F         -5.40722       -1.41804       -2.93440
C         -5.11824        0.91700       -3.26521
F         -4.60403        0.64179       -4.47558
C         -5.22975        2.27175       -2.89465
C         -5.99112        4.99616       -1.60602
C         -6.82866        5.97774       -1.22152
C         -6.77337        7.32192       -1.70906
S         -7.34429        8.57304       -0.64495
C         -7.02537        9.78616       -1.83294
N         -7.22633       11.13291       -1.79696
C         -6.80954       11.68307       -2.92251
S         -6.23718       10.55185       -4.12302
C         -6.51038        9.25812       -2.97736
C         -6.35909        7.83623       -2.92880
C         -6.81146       13.08558       -3.20131
C         -5.75336       13.86670       -2.93445
C         -5.71791       15.31315       -3.00745
C         -4.62694       15.85736       -2.43619
C         -3.71518       14.87279       -1.87825
S         -4.23075       13.25513       -2.36553
C         -2.65640       15.05929       -1.06656
C         -2.10931       16.29698       -0.54293
C         -1.10658       16.11972        0.33737
C         -0.79386       14.72944        0.59096
S         -1.75435       13.69214       -0.42068
C          0.09116       14.24987        1.48062
C          0.26753       12.80156        1.70651
C         -0.46071       12.05454        2.68007
O         -1.28060       12.84842        3.46107
C         -1.59817       12.40220        4.77182
C         -0.40435       10.62275        2.75059
O         -1.22513       10.00018        3.66500
C         -1.65050        8.66996        3.37604
C          0.44038        9.85980        1.91754
C          1.15515       10.55873        0.91806
C          1.07800       12.05579        0.80334
N          1.81823       12.53144       -0.21575
S          2.47133       11.21942       -0.98912
N          1.93228        9.98814       -0.01588
H         -2.11023       -0.16614        3.13300
H         -5.74710       -2.61739        5.56377
H         -0.37784       -2.11996        4.35812
H         -8.07019        0.69186        1.60091
H         -6.34785       -0.88895       -0.55975
H         -4.92238        3.06363       -3.56319
H         -5.23324        5.18196       -2.36188
H         -7.59301        5.77705       -0.47304
H         -5.98965        7.23885       -3.75238
H         -7.75437       13.51808       -3.51306
H         -6.52183       15.89299       -3.44101
H         -4.45885       16.92307       -2.36350
H         -2.47962       17.27138       -0.82935
H         -0.58489       16.92681        0.83348
H          0.68430       14.90461        2.10812
H         -0.75708       11.89842        5.25904
H         -2.49411       11.77407        4.75558
H         -1.83657       13.28697        5.37056
H         -2.67401        8.55905        3.74705
H         -1.01371        7.96008        3.91275
H         -1.67167        8.43579        2.30644
H          0.53262        8.78395        1.98305
