90

C         -3.98035       -2.29034       -1.35625
C         -4.43192       -3.52210       -1.69681
C         -3.57924       -4.65962       -1.73840
N         -2.88021       -5.58548       -1.77482
C         -5.80575       -3.78216       -1.96672
N         -6.92221       -3.98538       -2.19282
C         -2.60049       -1.95509       -0.91242
C         -2.66869       -0.80750       -0.12208
C         -1.55726       -0.22369        0.46661
C         -0.28475       -0.73714        0.13570
C         -0.20833       -1.86502       -0.69459
C         -1.36021       -2.50991       -1.21188
S          1.43683       -2.30071       -0.99348
C          2.01371       -0.98401       -0.10843
C          1.02114       -0.23951        0.46894
Br         3.83395       -0.57147        0.04770
C         -4.03298       -0.24162       -0.14511
O         -4.42576        0.70799        0.49946
C         -4.78932       -1.07488       -1.14197
C         -5.85496       -0.65504       -1.84052
C         -6.42166        0.63474       -1.69449
O         -6.10440        1.70383       -2.53020
C         -7.38375        1.10356       -0.84521
C         -8.22694        0.69980        0.23427
O         -8.28321       -0.39016        0.77377
N         -8.98316        1.82347        0.50610
C         -8.70471        2.90308       -0.30949
O         -9.23908        3.99650       -0.31840
C         -7.66553        2.42910       -1.16720
C         -6.86635        2.82836       -2.20281
C         -6.78890        4.08944       -2.85140
C         -5.92879        4.29611       -3.86110
C         -5.79655        5.55324       -4.53929
C         -5.43237        5.81424       -5.85663
N         -5.20479        4.75148       -6.80333
O         -4.31054        3.93836       -6.53934
O         -5.92635        4.74382       -7.80874
C         -5.32287        7.22462       -6.17562
C         -4.90458        7.78325       -7.50170
C         -5.60648        8.00294       -5.06317
S         -6.06282        7.04223       -3.71747
C         -5.54757        9.41749       -4.86731
C         -4.43075       10.02073       -4.42639
C         -4.35605       11.38452       -3.95134
C         -3.24078       11.64067       -3.24635
C         -2.34473       10.49943       -3.13917
S         -2.89435        9.21950       -4.21753
C         -1.30522       10.34540       -2.29681
C         -0.84537       11.28284       -1.28911
C          0.04045       10.75746       -0.42761
C          0.34993        9.37063       -0.69383
S         -0.36657        8.85432       -2.19499
C          1.04929        8.56940        0.12362
C          1.24276        7.12411       -0.10674
C          2.39109        6.69891       -0.79162
C          2.58611        5.34750       -1.04597
C          1.62833        4.42801       -0.62805
C          0.48026        4.83328        0.03668
C          0.26755        6.20260        0.31780
N         -0.85105        6.59231        0.98207
C         -1.75025        5.64084        1.33267
C         -1.52517        4.30062        1.03999
N         -0.40096        3.88930        0.40133
C         -2.45705        3.20557        1.43799
C         -2.97124        6.10446        2.06583
H         -1.64996        0.65073        1.09600
H         -1.23636       -3.35835       -1.87453
H          1.19533        0.64982        1.06415
H         -6.28069       -1.24795       -2.64180
H         -9.69940        1.84266        1.21069
H         -7.45215        4.87216       -2.49221
H         -5.29594        3.47549       -4.19723
H         -4.76162        7.00822       -8.25877
H         -3.95620        8.32169       -7.40534
H         -5.66348        8.47722       -7.87702
H         -6.48008        9.96946       -4.93804
H         -5.15760       12.09738       -4.08960
H         -3.04720       12.58882       -2.76492
H         -1.21477       12.29495       -1.20978
H          0.45783       11.29153        0.41467
H          1.43906        8.93590        1.06791
H          3.12452        7.42161       -1.14080
H          3.47210        5.00627       -1.57551
H          1.77257        3.36948       -0.82887
H         -3.42270        3.55319        1.80741
H         -1.98472        2.60604        2.22258
H         -2.64699        2.57990        0.56305
H         -3.87969        5.81231        1.52915
H         -2.98082        7.19451        2.16497
H         -2.99061        5.67401        3.07244
