75

C         -7.05578       -6.03626        2.66334
C         -6.19148       -5.02462        2.76763
C         -6.49852       -3.62010        2.70186
C         -5.40782       -2.83702        2.64181
C         -4.15390       -3.57727        2.65921
S         -4.48995       -5.29406        2.96122
C         -2.91018       -3.11523        2.41621
C         -2.49636       -1.77376        2.04500
C         -1.22404       -1.69815        1.60915
C         -0.53575       -2.97771        1.58547
S         -1.49735       -4.16239        2.43866
C          0.65261       -3.22398        0.99371
C          1.24177       -4.53364        0.87701
S          0.31222       -5.85025        0.22152
C          1.44048       -7.06597        0.70364
C          2.62858       -6.45134        1.05184
C          2.53499       -4.99428        1.06568
C          3.63240       -4.15402        1.30174
C          4.82234       -4.87754        1.52027
F          5.95220       -4.17740        1.71216
C          4.90513       -6.29762        1.54055
F          6.09568       -6.86761        1.78896
C          3.81696       -7.15197        1.30242
C          1.02064       -8.42216        0.54367
C          1.45222       -9.42859        1.32136
C          1.11515      -10.79801        1.09121
S         -0.08858      -11.32316       -0.04874
C          0.17797      -13.03097        0.22054
C          1.16731      -13.14758        1.15996
C          1.66024      -11.92239        1.64900
N          2.64495      -12.17795        2.57433
C          2.79205      -13.57860        2.66691
O          3.58415      -14.17335        3.37967
N          1.86573      -14.16086        1.77575
C         -0.60587      -13.92595       -0.56110
C         -1.12391      -15.10607       -0.15151
C         -0.93563      -15.72918        1.19950
C         -2.01383      -15.88845       -1.09195
N         -3.38664      -15.50533       -0.82668
C         -4.49028      -16.31106       -0.99973
C         -5.77453      -15.93525       -0.90819
C         -6.88996      -16.81283       -1.07421
S         -6.75129      -18.52270       -1.43653
C         -8.46021      -18.78637       -1.45645
C         -9.09123      -17.61349       -1.19515
C         -8.23063      -16.52957       -0.98623
N         -8.99676      -15.41430       -0.73246
C        -10.35682      -15.80214       -0.78287
O        -11.32412      -15.08073       -0.60559
N        -10.39055      -17.18740       -1.07447
H         -8.11661       -5.87713        2.51434
H         -6.71176       -7.06730        2.69660
H         -7.51594       -3.25345        2.68831
H         -5.45816       -1.75964        2.57459
H         -3.16112       -0.92197        2.08862
H         -0.76070       -0.78253        1.26595
H          1.20901       -2.39750        0.56022
H          3.62223       -3.07359        1.28942
H          3.94827       -8.22398        1.29257
H          0.30379       -8.60735       -0.25277
H          2.12255       -9.23287        2.15211
H          3.19492      -11.50719        3.08487
H          1.77642      -15.14915        1.61525
H         -0.86552      -13.57993       -1.55946
H         -0.93538      -14.98647        2.00135
H         -0.00020      -16.29573        1.22046
H         -1.74225      -16.43527        1.42861
H         -1.85876      -16.96690       -0.94559
H         -1.77477      -15.67700       -2.14380
H         -3.56496      -14.50589       -0.80890
H         -4.21252      -17.33993       -1.21300
H         -5.99563      -14.89778       -0.67533
H         -8.87094      -19.76598       -1.65307
H         -8.66900      -14.48356       -0.53841
H        -11.22749      -17.73710       -1.16961
