100

C         -3.98348       -2.54446       -2.22715
O         -4.20720       -3.89323       -2.36728
C         -3.00645       -4.45730       -2.17435
C         -2.02472       -3.51761       -1.90564
C         -2.65099       -2.26953       -1.94675
C         -0.76752       -4.20434       -1.70230
S          0.68820       -3.54931       -1.37856
C         -1.07838       -5.60653       -1.86799
C         -2.42072       -5.74113       -2.15921
O         -2.76837       -7.01864       -2.35292
C         -1.60861       -7.76322       -2.15678
C         -0.55199       -6.89566       -1.84583
C         -1.55254       -9.17668       -2.20823
C         -2.47920       -9.89685       -2.85312
C         -2.48891      -11.32224       -2.77860
S         -2.91768      -12.20382       -4.18297
C         -2.77732      -13.76543       -3.44929
C         -2.35854      -13.59326       -2.13195
C         -2.22558      -12.20484       -1.74543
C         -1.87369      -11.79213       -0.45345
C         -1.58560      -12.83847        0.44737
C         -1.15369      -12.44314        1.84298
C         -1.68743      -14.22496        0.06853
C         -1.34929      -15.28686        1.08938
C         -2.10338      -14.64923       -1.23324
C         -2.98803      -14.97479       -4.20319
C         -3.77347      -15.16966       -5.28318
C         -4.66026      -14.22455       -5.96883
C         -4.24366      -13.40805       -7.01027
C         -3.00554      -13.49599       -7.76591
O         -2.10512      -14.31963       -7.63306
O         -3.07804      -12.51270       -8.69197
C         -4.22587      -11.79340       -8.60576
O         -4.49424      -10.85049       -9.31969
C         -5.02652      -12.37414       -7.52285
C         -6.32302      -12.06969       -7.02329
C         -6.76533      -12.96504       -6.03527
C         -5.98082      -14.02152       -5.58499
C         -6.82262      -14.92921       -4.83465
O         -6.57532      -16.08208       -4.55029
O         -7.99324      -14.28120       -4.66040
C         -8.03788      -13.09823       -5.32625
O         -8.96690      -12.32491       -5.29054
C         -7.20365      -11.01624       -7.60434
S         -7.50199      -11.12807       -9.31027
C         -8.40127       -9.66031       -9.40502
C         -8.67555       -9.22757       -8.12146
C         -7.96875       -9.97216       -7.08969
C         -8.08776       -9.63755       -5.72654
C         -8.99157       -8.56071       -5.45684
C         -9.21941       -8.17512       -4.01047
C         -9.69267       -7.83936       -6.49293
C        -10.58974       -6.66853       -6.14848
C         -9.53175       -8.14495       -7.86545
C         -8.83098       -9.13353      -10.66596
C         -8.09064       -9.22256      -11.78152
C         -8.57833       -8.68656      -13.00093
O         -9.36207       -9.42650      -13.88175
C         -9.58383       -8.63348      -14.93642
C         -8.98484       -7.39793      -14.79165
C         -8.35118       -7.41410      -13.54662
C         -9.24023       -6.61330      -15.97924
S         -8.74478       -5.09332      -16.29273
C        -10.02089       -7.47826      -16.83601
C        -10.22644       -8.68203      -16.19380
O        -10.95515       -9.52767      -16.93329
C        -11.22353       -8.86811      -18.13346
C        -10.65228       -7.58536      -18.07520
C        -11.97340       -9.47985      -19.17541
C        -11.81607       -9.13145      -20.45871
H         -4.85850       -1.92251       -2.35719
H         -2.21558       -1.29126       -1.79790
H          0.46417       -7.20073       -1.63673
H         -0.73604       -9.64928       -1.67199
H         -3.23805       -9.40437       -3.45804
H         -1.80978      -10.75753       -0.13024
H         -1.80642      -12.90078        2.59186
H         -1.21077      -11.35773        1.98946
H         -0.11559      -12.74124        2.01992
H         -0.32814      -15.14392        1.45787
H         -1.40559      -16.29234        0.66084
H         -2.04965      -15.23804        1.92904
H         -2.20310      -15.69851       -1.48395
H         -2.43040      -15.84233       -3.85279
H         -3.78130      -16.17607       -5.71899
H         -7.59557      -10.16522       -4.92065
H         -8.95814       -7.12301       -3.85810
H         -8.60189       -8.77096       -3.33162
H        -10.26647       -8.33449       -3.72942
H        -11.28108       -6.91672       -5.33735
H        -11.20531       -6.36799       -7.00438
H         -9.97679       -5.80952       -5.85803
H        -10.05031       -7.58262       -8.63297
H         -9.78272       -8.60849      -10.69701
H         -7.11652       -9.70069      -11.80558
H         -7.77074       -6.62705      -13.08406
H        -10.70843       -6.83708      -18.85442
H        -12.67095      -10.26624      -18.90244
H        -11.09977       -8.38130      -20.77924
H        -12.39562       -9.61909      -21.23585
