73

C         -3.63462        0.05633        6.46313
S         -4.35453       -0.09653        8.03176
C         -5.94930        0.21371        7.42811
C         -5.90424        0.41936        6.07830
C         -4.60923        0.33170        5.55390
C         -4.68608        0.56744        4.16480
C         -5.96595        0.80270        3.78278
C         -6.84618        0.70872        5.02931
O         -8.05509        0.83345        5.11848
C         -6.48470        1.09273        2.46797
C         -5.73095        1.20802        1.36310
C         -6.29255        1.50494        0.09250
O         -7.62941        1.71066       -0.15435
C         -7.83153        1.95756       -1.49736
C         -6.58481        1.94796       -2.10226
C         -5.62070        1.64804       -1.10831
N         -6.27900        2.20540       -3.46825
O         -6.59671        3.31269       -3.91513
O         -5.63705        1.32798       -4.05875
C         -9.16399        2.13921       -2.01656
S         -9.63674        1.58675       -3.59435
C        -11.26547        2.13659       -3.41934
C        -11.44094        2.66304       -2.17373
C        -10.26985        2.65820       -1.39682
C        -10.60439        3.22148       -0.14130
C        -11.91321        3.56734       -0.09950
C        -12.54165        3.23099       -1.43716
O        -13.69051        3.39643       -1.79872
C        -12.61261        4.11559        1.02495
C        -13.30342        5.26517        0.99406
C        -13.94807        5.76959        2.15792
S        -15.34010        6.81129        1.99492
C        -15.59777        6.91782        3.70009
C        -14.62976        6.21906        4.35970
C        -13.69953        5.61913        3.49746
C        -12.72968        4.97966        4.30802
C        -13.02390        5.12736        5.62048
C        -14.30102        5.93199        5.73191
O        -14.91373        6.22603        6.74094
C        -12.26176        4.64663        6.73917
C        -12.00751        3.34134        6.92046
C        -11.18868        2.82831        7.98851
C        -10.77548        1.57791        8.25957
C        -10.09234        1.46064        9.63090
O         -9.74553        2.34973       10.38478
C         -9.99836        0.04606        9.82267
C         -9.52834       -0.74546       10.82701
S         -9.69118       -2.39790       10.45078
C        -10.40286       -2.04510        8.91250
C        -10.49641       -0.69042        8.71975
C        -10.92331        0.20709        7.65729
C        -11.23155       -0.18619        6.39450
C        -11.44220        0.68244        5.28845
N        -11.65231        1.32645        4.34472
C        -11.34052       -1.56231        6.04204
N        -11.45231       -2.68650        5.75212
Cl        -8.82680       -0.28531       12.32023
H         -2.56850       -0.06377        6.32634
H         -6.79886        0.22512        8.09563
H         -3.81972        0.55821        3.51855
H         -7.56516        1.22277        2.41136
H         -4.65345        1.07849        1.40228
H         -4.55093        1.56141       -1.25187
H        -11.98862        2.02906       -4.21704
H         -9.90380        3.35964        0.67295
H        -12.54838        3.51645        1.92998
H        -13.39359        5.82819        0.06676
H        -16.42426        7.48463        4.10596
H        -11.85450        4.46878        3.92858
H        -11.89591        5.40613        7.42671
H        -12.48506        2.64846        6.24628
H        -10.89801        3.61321        8.69639
H        -10.67793       -2.87700        8.27955
