100

C         -0.53420       -5.86152        7.51778
S         -1.07991       -7.19853        6.60229
C         -1.02061       -6.32444        5.10060
C         -0.64646       -5.01188        5.33654
C         -0.33980       -4.76496        6.72075
C          0.09073       -3.54301        7.23120
C          0.20646       -2.55008        6.22874
C          0.66454       -1.25528        6.64868
N          1.03629       -0.22617        7.01448
C         -0.10839       -2.77616        4.84051
C          0.05049       -1.72334        3.87185
N          0.17877       -0.90509        3.06045
C         -0.57076       -4.02078        4.34773
C         -1.37385       -7.04464        3.92504
C         -0.80395       -6.80727        2.73062
C         -1.18859       -7.49356        1.53955
S         -2.74108       -8.20509        1.42945
C         -2.51847       -8.84065       -0.15319
C         -1.27649       -8.44619       -0.62260
C         -0.52758       -7.65950        0.33586
C          0.74584       -7.12809        0.07632
C          1.22854       -7.41780       -1.22566
C          2.53545       -6.84165       -1.58086
C          3.69677       -7.47265       -1.37705
C          0.48598       -8.20337       -2.18471
C          1.05673       -8.45194       -3.56359
C         -0.79495       -8.75799       -1.90272
C         -3.56740       -9.59779       -0.76516
C         -4.69787       -9.92523       -0.11391
C         -5.73337      -10.62069       -0.77643
O         -5.95335      -10.49171       -2.12020
C         -7.01410      -11.26593       -2.48631
C         -7.48847      -11.90930       -1.35750
C         -6.69373      -11.48149       -0.27243
C         -6.82977      -11.87656        1.09017
N         -6.94485      -12.19621        2.20210
C         -7.47723      -11.37503       -3.81337
C         -7.26100      -10.39941       -4.71037
C         -7.70707      -10.49426       -6.06764
S         -8.44629      -11.95184       -6.65047
C         -8.71891      -11.33862       -8.21483
C         -8.22096      -10.06539       -8.33038
C         -7.65240       -9.57390       -7.10492
C         -7.10708       -8.28854       -6.98511
C         -7.19709       -7.50693       -8.17488
C         -6.66229       -6.12692       -8.13327
C         -6.68899       -5.33924       -7.04904
C         -7.75555       -8.02775       -9.40980
C         -7.80947       -7.18095      -10.66323
C         -8.28648       -9.33963       -9.52098
C         -9.37471      -12.17514       -9.14482
C        -10.71216      -12.12899       -9.23877
C        -11.42490      -12.95520      -10.15175
S        -10.91030      -14.57081      -10.44686
C        -12.10215      -14.88146      -11.65529
C        -12.96972      -13.80410      -11.72037
C        -12.57647      -12.70140      -10.86978
C        -13.26477      -11.48257      -10.80194
C        -14.40310      -11.43863      -11.64450
C        -15.17028      -10.22016      -11.63282
N        -15.77063       -9.22803      -11.60506
C        -14.80040      -12.53437      -12.48712
C        -15.96672      -12.41270      -13.31923
N        -16.90394      -12.33494      -13.99864
C        -14.09109      -13.76368      -12.55989
C        -12.09856      -16.12690      -12.35819
C        -10.97122      -16.79821      -12.63670
H         -0.39907       -5.96220        8.58611
H          0.31963       -3.35984        8.27554
H         -0.83381       -4.15368        3.30497
H         -2.11636       -7.83138        4.04820
H         -0.01047       -6.07709        2.63126
H          1.31703       -6.53482        0.77867
H          2.51251       -5.85029       -2.03089
H          3.75480       -8.45833       -0.93030
H          4.63494       -6.99711       -1.66183
H          1.98032       -9.03478       -3.49678
H          1.25121       -7.50189       -4.07175
H          0.35551       -9.01525       -4.18867
H         -1.33414       -9.34907       -2.63223
H         -3.43319       -9.91041       -1.79819
H         -4.88104       -9.66645        0.92314
H         -8.32107      -12.59796       -1.32981
H         -8.01057      -12.28729       -4.05177
H         -6.74051       -9.49369       -4.40496
H         -6.65811       -7.90989       -6.07715
H         -6.23547       -5.73473       -9.05230
H         -7.11921       -5.65701       -6.10482
H         -6.28145       -4.33431       -7.08526
H         -6.79771       -6.96032      -11.01683
H         -8.35461       -6.25142      -10.47441
H         -8.33119       -7.70068      -11.47552
H         -8.70551       -9.72566      -10.44222
H         -8.75395      -12.83746       -9.73998
H        -11.27925      -11.43231       -8.62458
H        -12.97048      -10.64181      -10.18100
H        -14.40154      -14.57335      -13.21015
H        -13.04597      -16.53192      -12.70191
H         -9.98442      -16.44423      -12.35049
H        -11.00299      -17.73891      -13.17599
