108

C          4.34533       -2.48830        0.22083
O          4.23439       -3.69382        0.29437
C          5.33588       -1.66693        0.94032
C          5.21941       -0.31864        0.56886
C          5.96618        0.62541        1.26507
C          6.83746        0.20353        2.28857
C          6.96075       -1.16137        2.61309
C          6.20060       -2.11372        1.92992
Br         8.09655       -1.79473        3.99816
Br         7.79583        1.56591        3.20956
C          4.20236       -0.21700       -0.51958
C          4.05190        0.80883       -1.39173
C          4.83062        1.99638       -1.32333
N          5.46440        2.96516       -1.25546
C          3.13915        0.76133       -2.48635
N          2.38709        0.72493       -3.36816
C          3.49918       -1.51782       -0.55815
C          2.24796       -1.77899       -0.97049
C          1.52930       -3.03325       -0.75673
C          1.53612       -4.13094       -1.63095
F          2.21402       -4.02652       -2.78636
C          0.84150       -5.33190       -1.36823
F          0.92679       -6.31980       -2.27479
C          0.06281       -5.53855       -0.21414
C         -0.04699       -4.43468        0.67259
C          0.71020       -3.16065        0.40063
N          0.48807       -2.21230        1.32840
S         -0.58065       -2.85258        2.42261
N         -0.78567       -4.36971        1.79443
C         -0.62919       -6.77778        0.11116
C         -1.91293       -6.95728       -0.22265
C         -2.63720       -8.16402        0.02699
N         -2.98081       -8.68970        1.27361
C         -2.71676       -8.08549        2.56548
C         -3.57603       -6.85919        2.83750
C         -3.68547       -9.91069        1.13588
O         -4.09978      -10.68080        1.97913
C         -3.77916      -10.06875       -0.32898
C         -3.09356       -8.97031       -0.92699
C         -3.12513       -9.12415       -2.38173
O         -2.55950       -8.40378       -3.17779
N         -3.91763      -10.28255       -2.55507
C         -4.05939      -10.96328       -3.83599
C         -4.04243      -10.05687       -5.06228
C         -4.26631      -10.83115       -1.30889
C         -5.04079      -12.01740       -1.09198
C         -6.30356      -12.16346       -1.51911
C         -7.10552      -13.30820       -1.10104
C         -7.16529      -14.50212       -1.82103
C         -6.36578      -14.85339       -3.00805
O         -5.49123      -14.16615       -3.50038
S         -6.76902      -16.44738       -3.59591
C         -8.12965      -16.53434       -2.51105
O         -9.10377      -17.23177       -2.71707
C         -8.01180      -15.54426       -1.43080
C         -8.68713      -15.54675       -0.19271
C         -8.57428      -14.35332        0.53503
C         -7.85758      -13.26866        0.07338
C         -8.03709      -12.17019        1.01424
O         -7.67415      -11.02539        0.88546
O         -8.75821      -12.68803        2.04087
C         -9.09516      -13.98735        1.84493
O         -9.69657      -14.69834        2.62245
C         -9.43486      -16.70923        0.32175
C         -9.04859      -17.97554        0.08866
C         -9.75971      -19.09011        0.59855
S        -11.04700      -19.78142       -0.29877
C        -11.30184      -20.99925        0.86935
C        -10.43459      -20.88577        1.93350
C         -9.49081      -19.81525        1.74748
C         -8.39368      -19.49328        2.74536
C         -8.41552      -20.44434        3.96773
C         -9.82118      -20.93871        4.33086
C        -10.42997      -21.72863        3.16704
N         -7.04430      -19.52520        2.17399
C         -6.08369      -18.56330        2.29644
C         -4.82578      -18.64060        1.85847
H          5.87654        1.68944        1.06801
H          6.25090       -3.17034        2.17891
H          1.60737       -1.00725       -1.38780
H         -0.05806       -7.53120        0.64248
H         -2.44658       -6.20334       -0.80051
H         -1.65338       -7.83659        2.63351
H         -2.92106       -8.82808        3.34569
H         -3.40610       -6.07209        2.09704
H         -3.34250       -6.44625        3.82426
H         -4.64104       -7.11207        2.81630
H         -5.00734      -11.50659       -3.84650
H         -3.24521      -11.69222       -3.91071
H         -4.84765       -9.31669       -5.01657
H         -4.16972      -10.65102       -5.97239
H         -3.09321       -9.52478       -5.16890
H         -4.58993      -12.75318       -0.42841
H         -6.79825      -11.40229       -2.11885
H        -10.30713      -16.51260        0.94448
H         -8.15817      -18.22525       -0.47778
H        -12.09001      -21.72652        0.72779
H         -8.60625      -18.48014        3.11511
H         -7.97407      -19.92645        4.82865
H         -7.77850      -21.31989        3.78158
H         -9.77612      -21.57205        5.22305
H        -10.45878      -20.07857        4.57418
H        -11.45059      -22.03383        3.42351
H         -9.84682      -22.63921        2.98325
H         -6.77872      -20.39552        1.72403
H         -6.42013      -17.66267        2.80822
H         -4.44568      -19.52437        1.35785
H         -4.13622      -17.81612        2.00837
