110

C         -3.85965        1.47898       -5.01825
C         -3.78198        2.11843       -6.21061
C         -3.28361        1.49064       -7.38343
N         -2.87149        0.98025       -8.34323
C         -4.25506        3.44938       -6.40761
N         -4.63202        4.53531       -6.56483
C         -3.55061        0.03605       -4.75970
C         -4.16810       -0.32773       -3.56292
C         -4.08441       -1.58345       -2.97593
C         -3.33867       -2.56684       -3.65318
C         -2.72439       -2.22854       -4.86717
C         -2.80710       -0.92607       -5.43351
S         -1.88948       -3.58702       -5.53130
C         -2.32389       -4.59481       -4.22682
C         -3.08139       -3.93077       -3.29294
C         -4.89532        0.80221       -2.98972
O         -5.71346        0.70142       -2.10076
C         -4.45524        2.00940       -3.76607
C         -4.47536        3.27518       -3.31005
C         -4.98326        3.67964       -2.04120
S         -5.72962        5.22190       -1.89531
C         -6.23994        4.92863       -0.27595
C         -5.71159        3.73555        0.18510
C         -4.95340        3.05945       -0.80738
C         -5.90872        3.20492        1.50273
N         -6.09946        2.78646        2.56888
C         -7.09132        5.88861        0.33701
C         -8.01241        5.51171        1.23483
C         -8.93358        6.41033        1.84308
N         -9.05607        6.58229        3.21996
C         -8.26397        5.91371        4.23653
C         -7.00539        6.68429        4.59871
C        -10.06927        7.51124        3.53059
O        -10.44686        7.92775        4.60600
C        -10.60609        7.85436        2.19991
C         -9.84817        7.14521        1.21340
C        -10.39222        7.46124       -0.11725
O        -10.00140        7.05295       -1.19079
N        -11.45250        8.33333        0.19014
C        -12.30710        8.90253       -0.83488
C        -13.48826        8.00619       -1.18488
C        -11.54740        8.54920        1.56748
C        -12.51034        9.39927        2.18223
C        -13.83014        9.19313        2.10016
C        -14.81664       10.07736        2.64038
C        -14.63636       11.40119        2.82018
C        -15.86966       11.96917        3.34759
C        -16.82887       10.85767        3.38860
C        -16.19535        9.75659        2.95797
C        -18.18118       10.86748        3.79155
N        -19.29442       10.87349        4.11923
C        -16.02625       13.25547        3.71406
C        -17.25275       13.83701        4.24935
C        -17.03771       15.14486        4.48296
C        -15.65310       15.44553        4.15473
C        -15.04338       14.34674        3.68768
C        -13.68842       14.33095        3.28642
N        -12.57468       14.32320        2.95454
C        -18.03650       16.01776        5.03449
C        -18.03943       17.34074        4.82428
C        -19.03763       18.21735        5.37698
C        -20.35779       18.18067        5.15738
C        -21.24601       17.35535        4.32563
C        -21.02512       16.93613        3.05419
C        -21.99765       16.22070        2.29277
N        -22.78356       15.63553        1.67353
C        -19.84861       17.28377        2.32418
N        -18.91969       17.57906        1.69270
C        -22.55741       17.31665        5.03885
C        -22.54120       18.29994        6.03449
C        -21.21819       18.93449        6.12003
O        -20.89458       19.82907        6.87252
C        -23.61635       18.58584        6.86431
C        -24.79700       17.83346        6.68402
C        -24.81312       16.82294        5.71214
C        -23.69611       16.53559        4.88683
S        -26.34070       16.01969        5.67562
C        -26.97720       17.00805        6.90835
C        -26.05668       17.92041        7.36511
H         -4.57306       -1.78836       -2.02736
H         -2.28553       -0.73208       -6.36393
H         -2.00371       -5.62763       -4.20149
H         -3.45000       -4.39964       -2.38775
H         -4.07942        4.08433       -3.91709
H         -4.47987        2.10296       -0.62408
H         -7.01716        6.93004        0.02457
H         -8.15354        4.47586        1.52623
H         -8.01052        4.90360        3.89880
H         -8.88124        5.80386        5.13565
H         -6.41162        6.92730        3.71207
H         -6.38208        6.09163        5.27644
H         -7.25595        7.62261        5.10408
H        -11.70758        9.04532       -1.74149
H        -12.64725        9.89420       -0.51890
H        -13.15859        7.12013       -1.73504
H        -14.20571        8.55114       -1.80631
H        -14.01961        7.64344       -0.30409
H        -12.10014       10.23160        2.75136
H        -14.22186        8.31165        1.60564
H        -13.72513       11.92555        2.58944
H        -16.61749        8.76630        2.85360
H        -18.18993       13.33569        4.42344
H        -15.19872       16.41707        4.28642
H        -18.80959       15.55109        5.64294
H        -17.25928       17.82512        4.23726
H        -18.63455       18.93310        6.09605
H        -23.54180       19.35886        7.62391
H        -23.77054       15.72424        4.17138
H        -27.99589       16.87185        7.24473
H        -26.27271       18.63201        8.15321
