82

C          2.65641        2.70813        2.33927
C          2.20390        3.80095        3.03354
S          3.03408        3.94047        4.54656
C          3.97887        2.55669        4.23284
Cl         5.11156        2.03072        5.40448
C          3.68467        2.00785        3.02019
C          4.17345        0.87546        2.28323
O          5.08246        0.12422        2.57299
C          3.28880        0.87014        1.02992
C          2.36216        2.06440        1.07707
C          1.44783        2.46819        0.16219
C          0.63992        3.62315        0.35974
N         -0.02383        4.56324        0.52101
C          1.19760        1.78523       -1.05867
N          0.98608        1.22219       -2.05073
C          3.37551       -0.10095        0.09888
C          4.25266       -1.27510        0.08629
C          3.87982       -2.49130        0.61977
N          4.64088       -3.60451        0.56267
C          5.83476       -3.49504       -0.05024
N          6.27927       -2.36992       -0.63091
C          5.47227       -1.28909       -0.55939
C          6.72525       -4.66438       -0.04399
N          6.76823       -5.65941        0.95032
C          5.94008       -5.72102        2.13949
C          4.66085       -6.51323        1.91292
C          7.72449       -6.64757        0.65866
O          8.02318       -7.64850        1.27790
C          8.30834       -6.17939       -0.61127
C          7.63697       -4.95761       -0.97989
C          8.19515       -4.51305       -2.26887
O          7.88747       -3.54280       -2.92925
N          9.14424       -5.52016       -2.56053
C          9.93369       -5.47275       -3.77597
C         11.21917       -4.68259       -3.59984
C          9.21086       -6.48427       -1.54831
C         10.06769       -7.63971       -1.62543
C         10.59324       -8.30041       -0.58066
C         11.41308       -9.44476       -0.80301
O         11.29063      -10.22367       -1.93292
C         12.19337      -11.25212       -1.90970
C         12.92380      -11.12382       -0.74384
C         12.42627       -9.99414       -0.02240
C         12.95729       -9.52081        1.28242
F         12.31824       -8.42917        1.76993
F         12.87540      -10.48508        2.23411
F         14.27158       -9.18761        1.18284
C         12.35700      -12.18826       -2.96409
C         11.38675      -12.55446       -3.81582
C         11.86566      -13.16241       -5.12520
O         12.93795      -13.68055       -5.36753
C         10.76572      -12.88422       -6.00832
C         10.53436      -13.06403       -7.33760
S          9.00019      -12.47468       -7.79484
C          8.62185      -11.99145       -6.17638
C          9.66282      -12.28737       -5.33870
C          9.93508      -12.23383       -3.92302
C          9.01371      -12.19927       -2.93216
C          7.64424      -11.89013       -3.18646
N          6.53770      -11.62872       -3.41203
C          9.31463      -12.64439       -1.61240
N          9.53433      -13.09353       -0.56500
Cl        11.55629      -13.77621       -8.51260
H          1.45042        4.53984        2.79433
H          2.74924       -0.10925       -0.78544
H          2.92057       -2.63201        1.11037
H          5.85195       -0.41224       -1.07635
H          5.72512       -4.70997        2.49799
H          6.51576       -6.21093        2.93385
H          4.09944       -6.14428        1.04936
H          4.01416       -6.44789        2.79348
H          4.88272       -7.56972        1.73068
H          9.33118       -4.99646       -4.55841
H         10.15084       -6.48541       -4.12719
H         11.00694       -3.64472       -3.32321
H         11.78940       -4.67586       -4.53432
H         11.84879       -5.11752       -2.81735
H         10.30362       -7.98765       -2.62766
H         10.40864       -7.98305        0.44190
H         13.73523      -11.77115       -0.43376
H         13.37735      -12.52762       -3.13949
H          7.65599      -11.54047       -5.97349
