62

O          1.91985        1.90162        0.14526
C          0.84889        1.94861       -0.71886
N          0.68591        0.83218       -1.40876
C          1.73184        0.02733       -1.00822
C          2.47174        0.67598       -0.05200
C          1.97754       -1.28952       -1.54622
O          3.04840       -1.87928       -1.43845
C         -0.00140        3.09388       -0.86767
S          0.24790        4.49133        0.06054
C         -1.05542        5.35037       -0.68809
C         -1.70138        4.52443       -1.59729
C         -1.07940        3.23802       -1.71488
C         -2.85946        4.90755       -2.36078
N         -3.79313        5.19529       -2.97924
C         -1.35547        6.68911       -0.28049
C         -0.40194        7.52298        0.17007
C         -0.66655        8.82776        0.71037
C         -0.35551        9.21315        1.97920
C          0.29662        8.40965        3.05683
C         -0.80491       10.60544        2.21094
C         -1.35892       11.04460        1.06603
C         -1.29037        9.98243        0.08424
C         -1.74159       10.17287       -1.16165
C         -2.29411       11.47149       -1.49321
C         -2.35035       12.42891       -0.55265
O         -1.91042       12.26039        0.75142
C         -0.75041       11.39700        3.41131
C          0.38996       11.73234        4.03173
C          0.37221       12.50624        5.22371
S          1.72216       13.48281        5.61972
C          1.01608       14.04954        7.09061
C         -0.22976       13.47159        7.27473
C         -0.59632       12.60356        6.20444
C         -1.06604       13.67559        8.42115
N         -1.74890       13.84476        9.34347
C          1.79232       14.95285        7.87474
C          1.24088       15.91961        8.62225
C          2.05780       16.81090        9.36611
N          1.70741       18.03609        9.72943
C          2.79009       18.53644       10.41870
C          3.76981       17.58046       10.47934
O          3.33059       16.48665        9.80539
C          2.83715       19.86847       10.97046
O          3.79066       20.31522       11.60118
H          3.34108        0.43005        0.54094
H          1.12240       -1.73914       -2.07491
H         -1.40717        2.45521       -2.38813
H         -2.39118        7.01739       -0.31195
H          0.64609        7.23361        0.20828
H          0.60675        7.41947        2.70799
H         -0.38942        8.26038        3.89709
H          1.19706        8.91018        3.42700
H         -1.69470        9.40639       -1.92649
H         -2.64595       11.64799       -2.50324
H         -2.73497       13.42675       -0.70632
H         -1.71595       11.74588        3.76877
H          1.34956       11.43321        3.61553
H         -1.52711       12.04778        6.17382
H          2.87755       14.87117        7.81277
H          0.17366       16.10090        8.66893
H          4.75620       17.52264       10.91581
H          1.93879       20.47916       10.77812
