114

C          3.03345        0.50847       -2.86285
C          3.33101        0.40107       -1.55088
C          3.92670       -0.76923       -1.01155
N          4.43403       -1.72838       -0.59210
C          3.03870        1.41874       -0.59488
N          2.82239        2.26579        0.16248
C          3.18813       -0.55001       -3.90355
C          2.28290       -0.28525       -4.93747
C          2.14082       -1.04098       -6.08461
C          3.10577       -2.00377       -6.32333
C          4.13169       -2.24008       -5.36111
C          4.12584       -1.55286       -4.11806
C          5.18210       -3.09333       -5.72429
C          5.22780       -3.67271       -6.99756
C          4.20120       -3.45381       -7.91322
C          3.13091       -2.63780       -7.56884
C          1.78306        1.08183       -4.82860
O          1.22842        1.68248       -5.72817
C          2.30619        1.61929       -3.52837
C          2.20109        2.91573       -3.20014
C          1.51541        3.94852       -3.95577
C          0.20011        4.00470       -4.30542
N         -0.82328        3.03770       -3.93995
O         -1.96622        3.25153       -4.37448
O         -0.53946        2.10348       -3.17756
C         -0.13385        5.25734       -4.94615
C          0.94153        6.05378       -4.91922
C          2.03985        5.31929       -4.28176
C          3.26837        5.82747       -4.02483
C          4.47419        5.05506       -3.72778
C          5.48333        5.91857       -3.53000
C          4.97106        7.26906       -3.65647
N          5.77421        8.44640       -3.37124
O          5.27328        9.57118       -3.49704
O          6.94654        8.24376       -3.02347
C          3.65652        7.27147       -3.96892
C          2.79092        8.42676       -4.02288
C          1.74128        8.56918       -3.20261
C          0.85535        9.69387       -3.23122
C          0.16708       10.08747       -2.14119
C         -0.60154       11.27538       -2.49416
C         -0.42245       11.44804       -3.87658
C          0.44559       10.53962       -4.34156
C         -1.06735       12.55479       -4.69488
N         -1.60236       13.47293       -5.37372
C         -1.19463       12.19962       -1.74142
C         -1.98494       13.37929       -2.06148
C         -2.12065       14.10787       -0.93661
C         -1.47321       13.39858        0.14326
C         -0.95725       12.27350       -0.36196
C         -0.35326       11.17864        0.50227
N          0.14780       10.27037        1.21921
C         -2.91000       15.29055       -0.82724
C         -2.68560       16.40637       -1.53318
C         -3.53514       17.56303       -1.41918
C         -3.72044       18.34957       -0.32714
N         -3.06334       18.21341        0.96193
O         -2.65565       17.10744        1.33203
O         -2.99519       19.24180        1.65165
C         -4.69472       19.38468       -0.57949
C         -5.15656       19.25066       -1.83022
C         -4.48970       18.10068       -2.45455
C         -4.73365       17.64360       -3.70966
C         -4.01213       16.56094       -4.38985
C         -4.53663       16.40457       -5.61644
C         -5.61586       17.34819       -5.77484
N         -6.45855       17.38664       -6.95234
O         -7.64526       17.71853       -6.83366
O         -5.93155       17.04353       -8.01948
C         -5.77108       18.12551       -4.68070
C         -6.79105       19.13121       -4.49338
C         -6.90530       20.24357       -5.23859
C         -8.00232       21.21186       -5.09183
C         -8.66878       21.39702       -3.87862
C         -9.71026       22.33142       -3.78559
N        -10.35462       22.46070       -2.49269
O        -10.82665       21.42714       -1.99752
O        -10.31740       23.56983       -1.94323
C        -10.10708       23.11451       -4.87588
C         -9.42884       22.92695       -6.08701
C         -8.38501       21.99374       -6.19081
C        -11.17367       24.11645       -4.81902
C        -12.45279       23.83657       -5.09323
H          1.39749       -0.76823       -6.82800
H          4.93071       -1.73601       -3.41107
H          6.01023       -3.27150       -5.04167
H          6.07972       -4.28398       -7.28505
H          4.24624       -3.89235       -8.90692
H          2.35045       -2.44915       -8.30499
H          2.68806        3.30437       -2.31367
H         -1.09424        5.48441       -5.38459
H          0.98568        7.03354       -5.36450
H          4.58278        3.98371       -3.75898
H          6.51576        5.67456       -3.33126
H          3.04967        9.20566       -4.73710
H          1.52567        7.80926       -2.44940
H          0.22537        9.57776       -1.19632
H          0.79375       10.43366       -5.35701
H         -2.47881       13.62349       -2.98550
H         -1.48046       13.71021        1.17762
H         -3.69740       15.24780       -0.07697
H         -1.86732       16.46096       -2.24915
H         -4.98205       20.13819        0.13815
H         -5.87384       19.91630       -2.27560
H         -3.17934       15.98431       -4.03011
H         -4.21954       15.69903       -6.37115
H         -7.51134       18.89318       -3.71323
H         -6.19824       20.44249       -6.04221
H         -8.38875       20.82877       -2.99549
H         -9.70586       23.50687       -6.96659
H         -7.88566       21.87632       -7.15217
H        -10.87562       25.12051       -4.52512
H        -12.78941       22.84570       -5.38196
H        -13.20624       24.61724       -5.02716
