93

C         -6.37676        1.43644       -4.90331
C         -7.34715        2.13556       -5.54658
C         -7.19571        2.59099       -6.88512
N         -7.06134        2.94918       -7.98138
C         -8.63956        2.30745       -4.96822
N         -9.70649        2.37989       -4.51932
C         -5.15414        0.85940       -5.50941
C         -4.83534       -0.31115       -4.79875
C         -3.76525       -1.12494       -5.12028
C         -2.94669       -0.73600       -6.18628
C         -3.21427        0.47813       -6.88619
C         -4.32671        1.27074       -6.54060
C         -2.34961        0.87230       -7.91661
C         -1.25419        0.08273       -8.26969
C         -1.00836       -1.11264       -7.59983
C         -1.84669       -1.51841       -6.56148
C         -5.70754       -0.44786       -3.61493
O         -5.69810       -1.34197       -2.79630
C         -6.49065        0.82710       -3.57517
C         -6.77685        1.31383       -2.35800
C         -6.94003        2.70275       -2.09771
S         -7.31304        3.22872       -0.49696
C         -7.05388        4.85085       -1.02493
N         -6.79118        4.94266       -2.31190
N         -6.73070        3.70954       -2.92695
C         -7.12996        5.89276       -0.06934
C         -6.01035        6.35778        0.50597
C         -6.08255        7.28835        1.58295
S         -6.27064        6.62038        3.16011
C         -6.09651        8.12716        3.98279
C         -5.86769        9.12596        3.04702
C         -5.97001        8.66696        1.65482
C         -5.87424        9.56098        0.55922
S         -6.19967        9.17595       -1.12921
C         -5.59133       10.89143        0.94013
C         -5.44449       11.31661        2.28783
C         -5.58927       10.45938        3.39407
C         -6.22691        8.14039        5.46623
C         -5.81371        7.05200        6.25498
C         -5.93139        7.06037        7.66656
N         -5.42498        5.87395        8.38652
O         -5.06035        4.90503        7.70075
O         -5.34950        5.90264        9.62098
C         -6.47996        8.17543        8.32603
C         -6.90415        9.25516        7.53804
C         -6.79208        9.23016        6.13992
C         -6.67828        8.32662        9.77521
C         -7.81575        7.94613       10.37652
C         -7.99812        8.02948       11.81463
C         -8.81538        7.26927       12.56183
C         -9.04787        7.25584       14.03288
C         -8.24393        7.76852       14.99928
C         -8.51780        7.62886       16.39397
N         -8.73586        7.53117       17.52478
C         -7.02520        8.46047       14.72307
N         -6.04421        9.03376       14.51338
C        -10.26338        6.40779       14.26271
C        -10.61868        5.80099       13.05329
C         -9.74459        6.24424       11.96695
O         -9.82069        5.84184       10.82424
C        -11.68205        4.92087       12.90528
C        -12.45239        4.62105       14.02924
C        -12.14067        5.23259       15.27446
C        -11.05177        6.13143       15.37476
C        -12.92933        4.92144       16.39207
C        -13.99729        4.02605       16.29181
C        -14.29741        3.43035       15.07048
C        -13.53117        3.72758       13.94390
H         -3.56057       -2.01502       -4.53227
H         -4.50387        2.20302       -7.06986
H         -2.51996        1.80190       -8.45677
H         -0.59312        0.40176       -9.07166
H         -0.15909       -1.72943       -7.88273
H         -1.63082       -2.45258       -6.04684
H         -6.68918        0.65506       -1.49472
H         -8.11265        6.25318        0.21320
H         -5.02682        5.97904        0.22964
H         -7.31578        8.46469       -0.90728
H         -5.48685       11.64888        0.16124
H         -5.22287       12.36853        2.47173
H         -5.46624       10.83819        4.39966
H         -5.38775        6.17613        5.76714
H         -7.33715       10.13788        8.00866
H         -7.17733       10.08683        5.59209
H         -5.83551        8.72182       10.33713
H         -8.62086        7.52117        9.78053
H         -7.37894        8.79644       12.27056
H        -11.89636        4.48799       11.93174
H        -10.86582        6.58996       16.34055
H        -12.71594        5.36937       17.36117
H        -14.59358        3.79190       17.17046
H        -15.12727        2.73204       14.99411
H        -13.78212        3.25124       12.99787
