94

C          6.85267       -3.22298        2.93739
C          6.63668       -3.73385        1.66231
C          7.61361       -3.67239        0.57875
O          8.71564       -3.16904        0.69292
S          6.99459       -4.41319       -0.87162
C          5.46567       -4.79899       -0.10307
O          4.54944       -5.34961       -0.68294
C          5.43909       -4.36439        1.30181
C          4.38907       -4.51865        2.22399
C          4.63138       -4.01253        3.50414
C          5.81297       -3.38668        3.83481
C          5.74067       -2.96632        5.21530
O          6.60221       -2.36988        5.82530
O          4.52681       -3.37145        5.66156
C          3.80345       -4.00686        4.69999
O          2.69093       -4.47358        4.82119
C          3.11970       -5.17408        1.89068
C          2.95873       -6.49862        2.03584
C          1.74459       -7.16578        1.69508
S          1.82370       -8.81041        1.20839
C          0.11738       -8.95120        0.98652
C         -0.50228       -7.75493        1.31451
C          0.43002       -6.73789        1.70322
C         -1.92182       -7.54817        1.29974
N         -3.07304       -7.37576        1.26420
C         -0.37038      -10.22487        0.56641
C         -1.46021      -10.38526       -0.19951
C         -1.92708      -11.68213       -0.60179
N         -2.07314      -12.06384       -1.93442
C         -1.75485      -11.26826       -3.10170
C         -2.93640      -10.44466       -3.58402
C         -2.52851      -13.39072       -2.04752
O         -2.76043      -14.04455       -3.04367
C         -2.64854      -13.81712       -0.63960
C         -2.26528      -12.70666        0.18758
C         -2.36643      -13.13316        1.59292
O         -2.11283      -12.47540        2.58087
N         -2.79269      -14.47471        1.48062
C         -2.98082      -15.31172        2.64992
C         -1.69071      -15.99061        3.08596
C         -2.95809      -14.85294        0.14460
C         -3.33768      -16.17836       -0.26703
C         -4.04395      -16.43019       -1.38162
C         -4.37160      -17.74361       -1.81472
S         -5.21309      -17.94486       -3.30148
C         -5.24086      -19.66456       -3.18637
C         -4.60283      -20.06747       -2.02039
C         -4.11628      -18.97517       -1.24494
C         -4.42407      -21.42526       -1.60713
N         -4.30573      -22.51296       -1.22242
C         -5.85645      -20.39019       -4.25303
C         -6.45473      -21.57450       -4.05044
C         -7.05208      -22.34979       -5.13646
C         -8.38967      -22.21824       -5.51763
C         -9.36995      -21.31672       -4.89494
O         -9.13681      -20.54222       -3.98673
S        -10.94274      -21.48052       -5.62447
C        -10.38058      -22.72776       -6.71122
O        -11.12773      -23.31224       -7.47186
C         -8.93406      -22.98308       -6.56217
C         -8.15172      -23.88822       -7.31853
C         -6.80791      -23.98857       -6.92933
C         -6.30218      -23.27944       -5.85521
C         -4.92652      -23.69518       -5.64111
O         -4.18885      -23.36353       -4.73865
O         -4.63701      -24.54923       -6.64685
C         -5.68030      -24.72937       -7.49508
O         -5.62885      -25.35270       -8.53300
C         -8.73630      -24.60355       -8.46578
C         -8.46851      -25.85618       -8.85431
H          7.77995       -2.72768        3.21454
H          2.33176       -4.53383        1.50177
H          3.78070       -7.11386        2.39641
H          0.13190       -5.74130        2.01085
H          0.20147      -11.10294        0.86643
H         -2.03742       -9.54546       -0.57457
H         -1.45163      -11.94883       -3.90650
H         -0.89507      -10.62625       -2.88473
H         -3.79397      -11.08323       -3.82035
H         -2.66445       -9.89028       -4.48787
H         -3.25402       -9.72421       -2.82424
H         -3.76069      -16.05498        2.45449
H         -3.33799      -14.67841        3.47049
H         -1.30275      -16.64807        2.30147
H         -1.86320      -16.59480        3.98251
H         -0.91455      -15.25349        3.31726
H         -3.00161      -16.98734        0.37416
H         -4.37335      -15.60758       -2.01294
H         -3.58860      -19.10285       -0.30755
H         -5.84123      -19.93883       -5.24266
H         -6.53504      -22.03173       -3.06768
H         -9.49046      -24.06547       -9.04095
H         -7.75058      -26.50615       -8.36667
H         -8.96934      -26.27274       -9.72525
