92

C          1.46910       -1.05713       -2.51651
C          2.66238       -1.69368       -2.15003
N          3.90605       -0.98625       -2.40718
O          4.12784       -0.64345       -3.57530
O          4.64828       -0.77416       -1.43974
C          2.67189       -2.96363       -1.55724
C          3.94445       -3.67837       -1.16775
O          3.67000       -4.96704       -0.62488
C          1.42240       -3.57114       -1.34189
C          0.19682       -2.96455       -1.68458
C          0.24586       -1.69341       -2.27871
C         -1.09592       -3.63583       -1.41515
S         -1.14153       -5.20547       -0.71494
C         -2.85145       -5.26276       -0.64608
C         -3.38565       -4.11959       -1.21979
C         -2.38615       -3.19382       -1.64558
C         -4.79373       -3.87792       -1.36934
N         -5.92813       -3.67042       -1.45658
C         -3.43773       -6.42326       -0.06655
C         -4.58715       -6.37179        0.62015
C         -5.20944       -7.52957        1.18447
N         -5.57910       -7.63378        2.52599
C         -5.37785       -6.62773        3.55268
C         -3.91986       -6.44287        3.94798
C         -6.22643       -8.86037        2.78592
O         -6.68702       -9.29799        3.82051
C         -6.23070       -9.51086        1.46310
C         -5.58184       -8.63349        0.53227
C         -5.60208       -9.27533       -0.79431
O         -5.11613       -8.85279       -1.82309
N         -6.29659      -10.47546       -0.54291
C         -6.54022      -11.46320       -1.57645
C         -5.41657      -12.48178       -1.68172
C         -6.63373      -10.59573        0.80334
C         -7.34095      -11.71612        1.33461
C         -6.86666      -12.47082        2.33559
C         -7.59153      -13.56469        2.92122
C         -8.43781      -14.38389        2.26042
C         -8.96199      -15.37322        3.19988
C         -8.31492      -15.07099        4.48715
C         -7.49825      -14.02181        4.29558
C         -8.47182      -15.71115        5.73761
N         -8.61087      -16.22821        6.76592
C         -9.85857      -16.33658        2.89682
C        -10.40258      -17.29790        3.84707
C        -11.28007      -18.10845        3.21802
C        -11.32038      -17.69213        1.81911
C        -10.49462      -16.65558        1.61415
C        -10.31049      -16.04054        0.35736
N        -10.16589      -15.53341       -0.67524
C        -12.03704      -19.19228        3.87329
C        -12.92733      -19.98766        3.14787
C        -13.65108      -21.00655        3.77445
C        -13.50246      -21.25477        5.15252
C        -12.60941      -20.47867        5.91449
C        -11.89528      -19.45957        5.24815
C        -12.35850      -20.62648        7.39385
O        -11.80951      -21.90301        7.66910
N        -14.32882      -22.33184        5.73488
O        -15.09579      -22.93954        4.97386
O        -14.23544      -22.57081        6.94708
H          1.48121       -0.07133       -2.97822
H          4.47932       -3.11148       -0.40148
H          4.57603       -3.82146       -2.04960
H          4.52176       -5.35912       -0.36991
H          1.42401       -4.55918       -0.88522
H         -0.66371       -1.17170       -2.56670
H         -2.62494       -2.23941       -2.09895
H         -2.90287       -7.36940       -0.16273
H         -5.11533       -5.43870        0.79135
H         -5.94237       -6.92007        4.44569
H         -5.80484       -5.68200        3.20143
H         -3.50775       -7.36441        4.37082
H         -3.83278       -5.65220        4.70047
H         -3.29510       -6.15867        3.09664
H         -6.63416      -10.93814       -2.53364
H         -7.49517      -11.96600       -1.39003
H         -4.44760      -11.99168       -1.82125
H         -5.58950      -13.14780       -2.53313
H         -5.35428      -13.09664       -0.77808
H         -8.31447      -11.91280        0.89247
H         -5.89940      -12.24780        2.78310
H         -8.67633      -14.29411        1.21468
H         -6.87978      -13.54339        5.04402
H        -10.15285      -17.34539        4.89054
H        -11.92979      -18.16034        1.05857
H        -13.08281      -19.83536        2.08264
H        -14.33433      -21.59653        3.16457
H        -11.20686      -18.86456        5.84643
H        -13.26917      -20.44910        7.97611
H        -11.62384      -19.89103        7.74160
H        -12.57473      -22.48198        7.86189
