122

C         16.69351        4.04253        8.29487
C         17.28401        5.19376        8.78782
F         17.71938        6.12653        7.93175
C         17.39655        5.40984       10.15568
C         16.98061        4.42464       11.05704
C         16.40605        3.23041       10.59607
C         16.20087        3.08450        9.18561
C         15.42439        2.03835        8.69675
C         14.87892        1.17837        9.62508
C         15.28578        1.15089       10.96383
C         16.00344        2.20606       11.48475
C         14.73612       -0.09610       11.59899
O         14.90607       -0.48250       12.73327
C         13.94726       -0.78068       10.48148
C         13.69322        0.32200        9.57622
C         12.48288        0.92824        9.43760
C         12.31650        2.15562        8.72758
N         12.16054        3.09884        8.07043
C         11.29550        0.33714        9.95392
N         10.32208       -0.18754       10.30948
C         13.85592       -2.11761       10.34858
C         13.56223       -2.98592        9.17279
C         13.48497       -4.34357        9.20302
N         13.32869       -5.15859       10.39712
O         13.71033       -6.33413       10.32451
O         12.79375       -4.65025       11.38796
C         13.72026       -4.95266        7.90145
C         14.01265       -3.99194        7.01163
C         13.80183       -2.71224        7.69765
C         13.38933       -1.66263        6.96323
C         12.14567       -0.98983        7.28000
C         12.00869        0.03927        6.43435
C         13.10586       -0.00909        5.49782
N         13.38524        1.08058        4.59703
O         13.52368        0.82910        3.39709
O         13.41621        2.20987        5.09815
C         13.87364       -1.11063        5.66940
C         15.05636       -1.51865        4.94649
C         15.09744       -1.71293        3.61638
C         16.25869       -2.16040        2.90209
S         17.80218       -2.39392        3.69476
C         18.66728       -2.59785        2.23204
C         17.77829       -2.66777        1.18257
C         16.39674       -2.50275        1.56333
C         15.33112       -2.67022        0.65832
C         15.77352       -3.14233       -0.60775
C         14.78798       -3.70375       -1.59960
C         17.15592       -3.21521       -0.98132
C         18.21764       -2.93949       -0.11256
C         20.09089       -2.60368        2.15824
C         20.89773       -3.52686        2.70783
C         22.41876       -3.59887        2.51782
C         22.98298       -2.22908        2.23986
O         23.10769       -1.33707        3.06174
O         23.27546       -2.10832        0.90294
C         22.83712       -3.28758        0.20524
C         22.88407       -4.35405        1.27146
C         24.29395       -4.98826        1.30093
C         24.64027       -5.71799       -0.00838
C         24.05836       -5.05367       -1.23715
C         23.72820       -3.58625       -1.01148
O         23.02278       -3.24802       -2.20590
C         22.43313       -4.36780       -2.73580
O         21.68589       -4.32243       -3.69972
C         22.81320       -5.64145       -1.94401
C         21.54943       -6.20066       -1.24301
C         21.32415       -7.02459       -0.19044
C         19.98749       -6.99779        0.56967
O         18.89211       -6.75083        0.11508
C         20.35609       -7.17528        2.02245
C         19.61671       -6.94506        3.16804
C         20.30300       -6.63301        4.36979
C         21.72455       -6.53329        4.35007
C         22.38171       -5.79826        5.35556
C         21.65120       -5.24272        6.39710
C         20.30614       -5.53561        6.54576
C         19.63798       -6.25191        5.54350
F         22.24581       -4.39131        7.24263
C         22.43182       -7.04990        3.26059
C         21.73649       -7.37079        2.10186
C         22.19842       -7.71731        0.74763
C         22.93920       -8.83773        0.53340
C         23.00171       -9.44698       -0.73695
N         23.03062       -9.97498       -1.77462
C         23.54288       -9.52694        1.63251
N         24.00545      -10.03180        2.55372
H         16.58987        3.92747        7.21837
H         17.80928        6.34942       10.51144
H         17.07457        4.61647       12.12309
H         15.16756        1.97050        7.64347
H         16.19523        2.26665       12.55244
H         14.21199       -2.67207       11.22184
H         13.64262       -6.01165        7.69871
H         14.13650       -4.14299        5.95008
H         11.44622       -1.33512        8.02455
H         11.19841        0.75101        6.39701
H         15.91422       -1.74462        5.57388
H         14.21119       -1.50315        3.01818
H         14.28038       -2.56882        0.90020
H         15.10197       -4.72196       -1.86404
H         14.75757       -3.09476       -2.50648
H         13.78282       -3.77735       -1.17609
H         17.41171       -3.56727       -1.98142
H         19.24839       -3.03523       -0.41933
H         20.50122       -1.84718        1.49880
H         20.44461       -4.27628        3.34450
H         22.89605       -4.00044        3.41266
H         21.80807       -3.10636       -0.12523
H         22.15756       -5.10813        1.03254
H         24.43142       -5.68587        2.12492
H         25.04831       -4.20916        1.46415
H         24.37202       -6.76977        0.00270
H         25.73515       -5.74373       -0.09767
H         24.85357       -5.07893       -2.00434
H         24.64792       -2.98921       -0.96273
H         23.14521       -6.37481       -2.69017
H         20.63537       -5.78502       -1.68758
H         18.52795       -6.85036        3.10819
H         23.43573       -5.54222        5.27898
H         19.77175       -5.15482        7.41002
H         18.57388       -6.44124        5.66018
H         23.51810       -7.07349        3.29197
