117

C         -6.16671       -0.03593        6.28905
C         -6.77805       -0.07181        7.54160
F         -6.56422        0.93153        8.40316
C         -7.59651       -1.13307        7.90092
F         -8.18988       -1.15567        9.10193
C         -7.80577       -2.18674        7.02193
C         -7.18347       -2.18081        5.76666
C         -6.35603       -1.08587        5.37659
C         -5.73669       -1.07760        4.09985
C         -5.92958       -2.14087        3.22372
C         -6.72529       -3.20430        3.66640
C         -7.35851       -3.25383        4.89831
C         -6.74937       -4.28413        2.68361
O         -7.45638       -5.26551        2.77167
C         -5.76481       -3.89618        1.61214
C         -5.43301       -2.47443        1.85088
C         -4.91624       -1.59731        0.94740
C         -4.58444       -1.96069       -0.39052
N         -4.32532       -2.25374       -1.48270
C         -4.73397       -0.21428        1.24219
N         -4.59567        0.90240        1.48180
C         -5.23617       -4.77498        0.73929
C         -5.55102       -6.18755        0.67377
C         -4.69407       -7.21779        0.89673
N         -3.26352       -7.10645        1.06087
O         -2.59099       -8.08524        0.70465
O         -2.79369       -6.06064        1.53312
C         -5.38978       -8.47711        1.02507
C         -6.68715       -8.25309        0.77745
C         -6.85988       -6.85755        0.38069
C         -7.98701       -6.33768       -0.16462
C         -8.21259       -4.92079       -0.46176
C         -9.51520       -4.75230       -0.73526
C        -10.14590       -6.05047       -0.74962
N        -11.51964       -6.25143       -1.15275
O        -11.98519       -5.44111       -1.96609
O        -12.16192       -7.16877       -0.62313
C         -9.25792       -7.04276       -0.52119
C         -9.52077       -8.44849       -0.72716
C         -8.84183       -9.25020       -1.56124
C         -9.16623      -10.63770       -1.75566
N         -9.20633      -11.61415       -0.75024
C         -8.91359      -11.46545        0.65630
C        -10.12922      -11.11168        1.49689
C         -9.55112      -12.87946       -1.26891
O         -9.67609      -13.94752       -0.70503
C         -9.72630      -12.60256       -2.69817
C         -9.46779      -11.20979       -2.92545
C         -9.65217      -10.94945       -4.36277
O         -9.52970       -9.88530       -4.93373
N         -9.99902      -12.22324       -4.86897
C        -10.28639      -12.42015       -6.27632
C         -9.03697      -12.73518       -7.08380
C        -10.03569      -13.18550       -3.85461
C        -10.34539      -14.57422       -4.04187
C        -11.32926      -15.20545       -3.37923
C        -11.58794      -16.56637       -3.64999
O        -11.02042      -17.61981       -2.95714
C        -12.39709      -17.14055       -4.58615
C        -13.31974      -16.79025       -5.61499
O        -13.68304      -15.67840       -5.94664
N        -13.69930      -18.00681       -6.13978
C        -13.05564      -19.09478       -5.57234
O        -13.13839      -20.26326       -5.90247
C        -12.24345      -18.52763       -4.53789
C        -11.38018      -18.84854       -3.51764
C        -10.93474      -20.10183       -3.00721
C        -10.06648      -20.21336       -1.98854
C         -9.97505      -21.52175       -1.24903
O        -10.29544      -22.62410       -1.63896
C         -9.47920      -21.17628        0.10231
C         -9.28147      -22.03225        1.17190
C         -8.83473      -21.48270        2.38419
C         -8.70127      -20.06629        2.51813
C         -8.28563      -19.52312        3.74253
C         -7.94812      -20.36329        4.79750
C         -8.03890      -21.74085        4.65699
C         -8.49607      -22.30452        3.46876
F         -7.67453      -22.54499        5.66493
F         -7.51262      -19.82900        5.94665
C         -8.93520      -19.22925        1.41499
C         -9.23576      -19.79973        0.18695
C         -9.29586      -19.24972       -1.18960
C         -8.43846      -18.30113       -1.64652
C         -8.20912      -18.08666       -3.03899
N         -7.97975      -17.92374       -4.16540
C         -7.56649      -17.58334       -0.77431
N         -6.84539      -17.04297       -0.04230
H         -5.54046        0.81844        6.04512
H         -8.45237       -3.00413        7.33129
H         -5.10173       -0.23375        3.84448
H         -7.94848       -4.12591        5.17112
H         -4.44013       -4.48385        0.06113
H         -4.94823       -9.38832        1.40284
H         -7.48121       -8.94768        0.94387
H         -7.48897       -4.12804       -0.47229
H        -10.01271       -3.83034       -0.99395
H        -10.39400       -8.83657       -0.21614
H         -8.04669       -8.84942       -2.19038
H         -8.10904      -10.74938        0.78497
H         -8.51570      -12.41726        1.02635
H        -10.55178      -10.14099        1.24338
H         -9.85903      -11.06932        2.55586
H        -10.92440      -11.85056        1.36503
H        -10.72185      -11.49181       -6.66805
H        -11.03814      -13.20593       -6.40011
H         -8.36269      -11.87226       -7.11943
H         -9.30636      -12.99188       -8.11353
H         -8.48495      -13.57492       -6.65164
H         -9.71285      -15.11544       -4.74322
H        -11.96706      -14.70325       -2.65839
H        -14.34359      -18.08781       -6.90725
H        -11.41923      -20.99878       -3.39566
H         -9.44334      -23.09984        1.04989
H         -8.18546      -18.44940        3.88197
H         -8.55313      -23.38715        3.39597
H         -8.83080      -18.15221        1.52546
