96

C         -9.10164       -0.16264        6.72670
C         -9.82299       -0.54765        7.85603
F        -10.62356        0.34192        8.45911
C         -9.71902       -1.83800        8.35324
F        -10.43061       -2.20974        9.42615
C         -8.87203       -2.75844        7.74726
C         -8.11536       -2.38747        6.62554
C         -8.24489       -1.07371        6.08282
C         -7.52562       -0.71539        4.91510
C         -6.67089       -1.63628        4.31391
C         -6.54112       -2.90249        4.90332
C         -7.23995       -3.30068        6.03160
C         -5.64569       -3.75949        4.11014
O         -5.14904       -4.80330        4.47389
C         -5.46412       -3.03781        2.81172
C         -5.83781       -1.62267        3.06997
C         -5.38104       -0.53050        2.40924
C         -4.47603       -0.63659        1.30896
N         -3.75143       -0.74022        0.41289
C         -5.71524        0.80152        2.79945
N         -5.99645        1.87538        3.11944
C         -5.24714       -3.67016        1.64408
C         -5.07183       -5.11950        1.43293
C         -3.80469       -5.70354        1.47257
C         -3.64865       -7.07040        1.14698
N         -2.28951       -7.58021        1.12461
O         -1.63586       -7.48721        2.17219
O         -1.86449       -8.02084        0.04858
C         -4.73552       -7.89734        0.80883
C         -6.00254       -7.28957        0.79836
C         -6.16822       -5.92282        1.09497
C         -4.67191       -9.33907        0.49587
C         -4.54666       -9.86707       -0.74626
C         -4.61108      -11.33992       -0.63965
C         -4.68814      -11.60719        0.72806
C         -4.76756      -10.45835        1.42372
C         -4.54785      -12.98170        1.36165
N         -4.43146      -14.12197        1.88727
C         -4.73330      -12.33446       -1.52253
C         -4.78519      -13.79963       -1.41534
C         -5.06181      -14.33508       -2.62813
C         -5.17782      -13.21465       -3.54557
C         -4.99439      -12.07045       -2.86349
C         -5.13896      -10.69543       -3.49501
N         -5.25890       -9.55474       -4.01891
C         -5.18044      -15.74343       -2.85741
S         -5.83178      -16.80153       -1.62065
C         -5.59888      -18.25182       -2.53399
C         -5.00907      -17.92318       -3.72232
C         -4.88931      -16.52807       -3.95303
C         -4.41503      -16.30119       -5.30643
O         -4.22520      -15.21547       -5.83042
C         -4.24898      -17.67319       -5.98576
C         -4.53178      -18.68029       -4.86198
O         -4.40347      -19.89293       -4.90772
C         -5.93328      -19.50176       -1.95255
C         -7.14498      -20.07790       -1.99959
C         -7.39666      -21.15024       -0.96910
O         -6.58230      -21.77181       -0.31804
C         -8.85976      -21.24973       -0.83626
C         -9.55989      -22.06978        0.03904
C        -10.96243      -22.05087       -0.01036
C        -11.62034      -21.15480       -0.90057
C        -13.01884      -21.15554       -0.98672
C        -13.76202      -22.03495       -0.21081
C        -13.12894      -22.90009        0.66990
C        -11.74004      -22.90933        0.78276
F        -13.85285      -23.74733        1.41355
F        -15.09622      -22.04547       -0.33143
C        -10.87289      -20.29547       -1.71930
C         -9.48648      -20.37857       -1.73504
C         -8.44464      -19.77030       -2.62011
C         -8.72486      -19.33098       -3.87137
C         -7.77300      -19.13896       -4.90371
N         -7.14175      -18.96231       -5.85957
C        -10.04590      -19.12045       -4.35642
N        -11.11540      -18.92479       -4.76979
H         -9.21720        0.85723        6.36792
H         -8.81426       -3.76129        8.16272
H         -7.68217        0.27609        4.49806
H         -7.11549       -4.31009        6.41511
H         -5.26787       -3.12446        0.70335
H         -2.93703       -5.09873        1.73229
H         -6.88553       -7.87453        0.54196
H         -7.16845       -5.49526        1.04164
H         -4.40493       -9.26746       -1.62957
H         -4.82009      -10.35398        2.49765
H         -4.60781      -14.40388       -0.54544
H         -5.40891      -13.30500       -4.59686
H         -3.23682      -17.80043       -6.36735
H         -4.99826      -17.77405       -6.77615
H         -5.16506      -19.93735       -1.31020
H         -9.02072      -22.72750        0.71644
H        -13.54567      -20.49897       -1.67563
H        -11.28064      -23.60619        1.47836
H        -11.41553      -19.60088       -2.35016
