80

C         -9.31373       -6.12452       -5.50132
C         -8.40996       -5.27070       -6.10986
C         -7.00310       -5.24898       -5.78216
N         -6.20577       -4.38233       -6.44863
C         -6.76999       -3.52278       -7.34948
C         -8.12041       -3.53407       -7.61130
N         -8.94343       -4.42961       -7.00893
C         -8.75607       -2.59005       -8.48272
N         -9.25894       -1.80598       -9.17596
C         -5.87504       -2.59822       -7.97982
N         -5.16883       -1.83938       -8.50174
C         -6.45339       -6.07327       -4.76390
C         -7.38548       -6.87412       -4.04346
C         -8.82888       -6.92285       -4.45143
N         -9.57004       -7.76152       -3.71539
S         -8.56322       -8.38646       -2.55626
N         -7.15657       -7.59447       -2.93366
C         -5.05823       -6.01557       -4.31210
C         -4.25409       -4.75644       -4.23289
N         -3.07321       -4.82889       -3.69651
C         -2.97299       -6.14245       -3.38954
C         -4.15131       -6.87967       -3.81953
C         -3.89674       -8.34216       -3.51195
S         -4.77617       -9.69448       -3.91776
C         -2.56063       -8.30165       -2.82833
C         -2.09717       -6.93670       -2.78861
N         -0.87313       -6.84577       -2.20047
C         -0.59585       -8.08858       -1.92178
C         -1.61297       -9.08419       -2.31916
C         -1.50420      -10.48169       -2.29756
S         -0.70629      -11.26507       -3.59145
C         -1.04743      -12.83846       -2.97986
C         -1.61901      -12.74855       -1.71379
C         -1.91354      -11.38955       -1.33713
O         -2.56379      -10.89522       -0.24792
C         -2.43261      -11.63469        0.95688
C         -1.88637      -13.91679       -0.92632
N         -2.07535      -14.86891       -0.29006
C         -0.70251      -13.94440       -3.82179
C         -1.43337      -15.06977       -3.85404
C         -1.21420      -16.15307       -4.76075
C          0.04005      -16.55829       -5.44595
N         -0.04317      -17.56131       -6.27491
C         -1.35828      -17.89660       -6.20750
C         -2.04810      -17.06679       -5.25815
C         -3.48917      -17.47085       -5.20506
S         -4.61492      -16.96436       -4.08983
C         -3.57590      -18.49256       -6.32035
C         -2.21966      -18.71075       -6.80438
N         -2.19461      -19.63125       -7.79508
C         -3.45193      -19.93316       -7.92993
C         -4.43280      -19.24138       -7.03543
C         -5.89006      -19.41492       -7.09386
C         -6.53926      -20.62996       -7.44347
C         -7.97815      -20.75215       -7.45899
N         -8.59060      -21.89404       -7.80751
C         -7.81305      -22.94768       -8.17169
C         -6.44091      -22.85239       -8.17781
N         -5.80254      -21.70820       -7.79786
C         -5.60073      -23.93366       -8.60237
N         -4.93897      -24.81834       -8.95918
C         -8.51523      -24.12833       -8.57024
N         -9.07253      -25.09812       -8.89531
C         -8.82886      -19.70750       -7.14169
C         -8.23632      -18.46274       -6.87094
C         -6.74612      -18.29678       -6.88172
N         -6.39038      -17.01031       -6.74030
S         -7.76689      -16.14317       -6.42074
N         -8.90490      -17.33423       -6.59748
H        -10.36347       -6.13601       -5.77496
H         -4.67116       -3.81325       -4.61076
H          0.32882       -8.42008       -1.42437
H         -2.80379      -11.00498        1.77119
H         -1.38572      -11.87455        1.17005
H         -3.05892      -12.53006        0.94087
H          0.11029      -13.80690       -4.53320
H         -2.31115      -15.17835       -3.22202
H          0.97456      -16.01767       -5.23334
H         -3.80403      -20.64733       -8.68633
H         -9.90750      -19.82077       -7.15232
