134

C          8.33711        5.25208      -10.20963
C          7.40694        5.49790      -11.37987
O          6.19981        5.38234      -11.38439
C          8.30843        5.80113      -12.53465
C          9.63661        5.80453      -12.07550
C          9.60011        5.86125      -10.60042
C         10.43625        6.61060       -9.84005
C         10.14845        6.90441       -8.48247
N          9.90929        7.19441       -7.37805
C         11.58566        7.24495      -10.38798
N         12.52377        7.74179      -10.85725
C         10.69072        5.72388      -12.96392
C         10.41678        5.74362      -14.32848
C          9.11136        5.97277      -14.79438
C          8.01676        6.01140      -13.88782
C          6.73951        6.33181      -14.38394
C          6.56849        6.66828      -15.72920
C          7.64210        6.60145      -16.61373
C          8.89918        6.21705      -16.15450
C          8.01264        4.37189       -9.23996
C          8.91480        3.82803       -8.25613
S          8.23551        3.44809       -6.69190
C          9.75906        3.07051       -5.98635
C         10.76329        3.40044       -6.86891
C         10.27092        3.49469       -8.23330
C         11.15548        3.40278       -9.33793
C         10.70976        2.95817      -10.65970
C         11.49115        2.86968      -11.74394
C         12.51665        3.52193       -8.95810
C         12.97010        3.56031       -7.60932
C         12.11540        3.40437       -6.50602
C          9.81549        2.46013       -4.69938
C          9.92387        1.12092       -4.62825
C          9.95298        0.35271       -3.38978
C         10.96629       -0.53252       -3.19756
C         10.98316       -1.38127       -2.01606
C         11.87096       -2.31306       -1.57423
C         13.25862       -2.71145       -2.04454
C         13.22611       -3.85363       -3.08723
N         12.53865       -3.52404       -4.33678
C         14.16736       -1.55015       -2.52600
N         14.45599       -0.58018       -1.46440
C         11.22663       -2.91853       -0.39927
C         11.57896       -3.95987        0.37466
C         10.73522       -4.42028        1.56715
C          9.46955       -3.59271        1.77297
C          9.11821       -2.55737        0.98961
C          9.97104       -2.22860       -0.12020
C          9.83180       -1.30919       -1.08563
C          8.79306       -0.33290       -1.30062
C          8.86624        0.45129       -2.39263
C         11.57558       -4.34645        2.81528
C         11.86629       -5.34990        3.67154
C         12.72418       -5.18144        4.82381
S         13.29272       -3.56049        5.15269
C         14.25938       -3.98630        6.47020
C         14.15928       -5.33288        6.71449
C         13.24660       -6.05066        5.79752
C         13.01809       -7.45296        5.97916
C         12.11807       -8.30251        5.19792
C         11.45864       -9.35071        5.71642
C         13.79940       -8.01585        7.03459
C         14.67613       -7.28999        7.88298
C         14.87901       -5.91263        7.76668
C         14.98608       -2.94545        7.10310
C         16.20823       -2.63349        6.65256
C         16.98797       -1.55763        7.21216
C         18.01680       -0.95979        6.60013
C         19.01861       -0.23784        7.43991
O         18.82525        0.24744        8.53466
C         20.29660       -0.34669        6.68802
C         20.06035       -0.99836        5.45492
C         18.59461       -1.11420        5.27052
C         17.95408       -0.97804        4.08148
C         16.59513       -0.53722        4.01312
N         15.52735       -0.09387        3.93238
C         18.62738       -1.06993        2.82957
N         19.19507       -1.16847        1.82117
C         21.12551       -1.35520        4.65001
C         22.40978       -0.96506        5.03775
C         22.64091       -0.23254        6.22251
C         21.56926        0.07117        7.09461
C         21.83460        0.78244        8.28406
C         23.12421        1.21700        8.58362
C         24.17017        0.93611        7.71214
C         23.93232        0.20713        6.54666
H         11.72035        5.61523      -12.63289
H         11.24542        5.64788      -15.02902
H          5.88451        6.40213      -13.71365
H          5.59738        7.00469      -16.08434
H          7.50958        6.87245      -17.65787
H          9.72673        6.17419      -16.86083
H          6.97968        4.01998       -9.19986
H          9.68151        2.61224      -10.74204
H         12.53341        3.16775      -11.75361
H         11.08561        2.49971      -12.68099
H         13.28938        3.53869       -9.72548
H         14.04296        3.64052       -7.43160
H         12.48851        3.32695       -5.49252
H          9.78591        3.08342       -3.81175
H          9.96387        0.52305       -5.53996
H         11.73942       -0.66274       -3.94514
H         13.78847       -3.12576       -1.17370
H         12.75490       -4.74118       -2.64880
H         14.25584       -4.14023       -3.33435
H         11.55057       -3.36372       -4.12967
H         12.55794       -4.33986       -4.94888
H         13.74367       -1.02789       -3.38612
H         15.12838       -1.95849       -2.86122
H         13.57958       -0.22748       -1.07756
H         14.93404        0.22560       -1.86496
H         12.49196       -4.51317        0.18199
H         10.42719       -5.45606        1.37877
H          8.83262       -3.85996        2.61236
H          8.21855       -1.98289        1.17418
H          7.97854       -0.24041       -0.59319
H          8.08194        1.17849       -2.58415
H         11.95710       -3.33895        2.97188
H         11.43969       -6.32007        3.46285
H         12.00818       -8.10334        4.14276
H         11.53287       -9.63817        6.76162
H         10.81507       -9.96585        5.09473
H         13.73532       -9.08909        7.22289
H         15.21004       -7.83245        8.66319
H         15.54271       -5.37547        8.43342
H         14.48921       -2.36884        7.87797
H         16.65647       -3.22669        5.85727
H         16.78202       -1.31605        8.25683
H         21.00406       -1.91372        3.72747
H         23.24435       -1.22285        4.38610
H         21.03540        1.02584        8.98194
H         23.30582        1.78346        9.49354
H         25.17354        1.28692        7.93732
H         24.76736       -0.00243        5.88138
