128

C          5.88686       -1.11900       -0.59224
C          5.35609       -0.62608       -1.76328
C          4.92499        0.72051       -1.82437
N          4.39745        1.19463       -2.97789
C          4.30471        0.34668       -4.02947
C          4.73348       -0.95483       -3.94847
N          5.26289       -1.45825       -2.81741
C          5.06418        1.51982       -0.67160
C          5.60522        1.00808        0.52068
C          6.01606       -0.34689        0.54520
N          6.52947       -0.92033        1.64638
C          6.64140       -0.14502        2.74352
C          6.26019        1.17701        2.73810
N          5.74501        1.76754        1.63861
C          4.65130        2.94526       -0.71657
C          3.40693        3.36419       -0.43393
C          3.00541        4.75292       -0.46175
C          2.54290        5.37380        0.64930
C          2.30736        6.77683        0.38481
C          1.81510        7.71060        1.33271
N          1.41478        8.46207        2.11259
C          2.62410        7.04608       -0.89293
C          3.08184        5.79527       -1.51536
C          3.46526        5.64948       -2.80137
C          3.72785        6.70223       -3.79124
C          4.04211        6.09467       -4.95477
C          4.02212        4.66427       -4.76534
C          3.68305        4.39074       -3.50054
C          4.33500        3.71881       -5.76908
N          4.59442        2.94524       -6.58942
C          3.83624        8.12077       -3.66193
C          4.66795        8.71999       -2.79231
C          4.80260       10.16103       -2.68845
C          4.63495       10.89377       -3.81540
C          4.66296       12.32243       -3.74941
C          4.40596       13.22669       -4.72452
C          4.10067       12.95672       -6.18224
C          2.69990       13.47140       -6.59596
N          2.35790       13.18861       -7.98930
C          5.27194       13.46159       -7.06581
N          5.20593       13.00060       -8.45836
C          4.48599       14.50742       -4.03674
C          4.18548       15.74499       -4.44870
C          4.26069       16.94090       -3.52124
C          4.81022       16.63243       -2.13558
C          5.10875       15.38856       -1.72097
C          4.89194       14.30809       -2.64310
C          4.97136       12.98302       -2.47138
C          5.27212       12.17942       -1.31132
C          5.18233       10.83803       -1.42720
C          5.08334       18.00361       -4.18244
C          4.54831       18.96756       -4.94728
C          5.35576       19.96531       -5.58511
C          6.12951       20.80488       -4.85686
C          6.85998       21.67915       -5.73460
C          7.81354       22.63633       -5.32220
N          8.59163       23.43481       -5.00995
C          6.53426       21.40763       -7.00434
C          5.53331       20.33574       -7.01159
C          4.93571       19.81304       -8.10884
C          5.04914       20.27424       -9.51611
C          4.35227       19.39646      -10.26594
C          3.70465       18.42413       -9.42444
C          4.01721       18.66451       -8.14103
C          2.83833       17.43298       -9.93861
N          2.12343       16.64202      -10.40057
C          5.69618       21.41021      -10.11894
C          5.17802       22.10157      -11.14518
C          5.78952       23.31540      -11.74161
C          5.71392       23.44101      -13.13583
C          6.22780       24.60235      -13.75060
N          6.15463       24.71793      -15.10357
C          5.58930       23.72729      -15.81865
C          5.10389       22.60065      -15.21544
N          5.15690       22.44625      -13.88001
C          6.80577       25.60513      -12.94222
C          6.90743       25.45622      -11.54125
C          6.36121       24.31000      -10.92965
N          6.39852       24.17236       -9.57477
C          7.00142       25.12528       -8.84291
C          7.56438       26.22091       -9.43673
N          7.51592       26.40266      -10.77215
C          7.38553       26.85079      -13.53130
C          6.98246       27.47938      -14.64402
H          6.21394       -2.15792       -0.56060
H          3.87338        0.74579       -4.93991
H          4.65859       -1.63489       -4.79049
H          7.04350       -0.62335        3.62840
H          6.35524        1.80151        3.61900
H          5.43406        3.64184       -1.00652
H          2.63673        2.65763       -0.13403
H          2.40373        4.92003        1.61976
H          2.50054        8.00401       -1.37129
H          4.33815        6.57978       -5.87403
H          3.55181        3.40739       -3.09298
H          3.21402        8.68750       -4.35077
H          5.25634        8.12862       -2.09333
H          4.41474       10.44121       -4.77302
H          4.06626       11.86836       -6.32666
H          2.61730       14.54846       -6.44507
H          1.93853       13.00039       -5.96275
H          3.18599       13.39638       -8.56761
H          1.64033       13.83946       -8.30892
H          6.22338       13.11040       -6.64694
H          5.29996       14.55549       -7.07276
H          5.11775       11.98201       -8.47353
H          6.08382       13.21255       -8.93167
H          3.83788       15.93320       -5.45597
H          3.23575       17.30894       -3.37849
H          4.94763       17.46736       -1.45421
H          5.49558       15.19159       -0.72839
H          5.54748       12.65341       -0.37717
H          5.38789       10.20984       -0.56392
H          6.16316       17.93842       -4.05474
H          3.47615       19.01591       -5.11927
H          6.22130       20.82421       -3.78011
H          7.00270       21.88711       -7.83964
H          4.22873       19.43520      -11.33974
H          3.64914       18.10019       -7.30238
H          6.63672       21.73233       -9.70187
H          4.25187       21.78143      -11.61891
H          5.54174       23.87657      -16.89016
H          4.65993       21.79017      -15.78054
H          7.02322       24.97190       -7.77054
H          8.07059       26.98533       -8.86029
H          8.19998       27.29900      -12.96363
H          6.16632       27.12051      -15.26176
H          7.47741       28.38638      -14.97354
