82

C          8.97685       -5.78044       -1.04424
N          9.75992       -6.29165       -0.11445
C         10.78119       -7.03538       -0.67530
C         10.77247       -7.10513       -2.04763
S          9.45071       -6.21322       -2.65855
C         11.71207       -7.81323       -2.84946
N         12.47467       -8.39817       -3.49542
C          7.84759       -4.97169       -0.83825
C          6.61906       -4.87984       -1.65778
N          5.69022       -4.07519       -1.22491
C          6.23215       -3.58039       -0.08129
C          7.55391       -4.12925        0.15271
C          8.09255       -3.54197        1.42725
S          9.57965       -3.74070        2.13743
C          6.94773       -2.68398        1.88458
C          5.88906       -2.76072        0.90449
N          4.82605       -2.00105        1.27548
C          5.21220       -1.50831        2.41854
C          6.56151       -1.90660        2.89446
C          7.16956       -1.51418        4.13563
C          6.53749       -1.81905        5.30187
C          7.15987       -1.49583        6.57489
C          6.80100       -1.76961        7.85866
C          5.61706       -2.51048        8.45431
C          4.23650       -1.92047        8.06706
N          4.01373       -0.57286        8.59324
C          5.64472       -4.02463        8.12032
N          6.81304       -4.71767        8.66875
C          7.90431       -1.24751        8.67411
C          8.13853       -1.31284        9.99465
C          9.39805       -0.73420       10.62243
C         10.35119       -0.08181        9.62340
C         10.11063       -0.01844        8.30292
C          8.90228       -0.62188        7.81216
C          8.46113       -0.78743        6.55863
C          9.07711       -0.43095        5.30660
C          8.45955       -0.79072        4.16662
C          9.01765        0.21387       11.73785
C          8.84306        1.53658       11.58956
C          8.52896        2.44302       12.64033
C          7.80007        2.17711       13.90643
N          7.62277        3.19257       14.70480
C          8.21342        4.21108       14.02695
C          8.75570        3.75025       12.76839
C          9.40413        4.89974       12.06087
S         10.25016        4.91664       10.63270
C          9.15068        6.02538       13.01185
C          8.44310        5.51035       14.16816
N          8.19737        6.49866       15.06861
C          8.70528        7.54919       14.48817
C          9.33809        7.32970       13.17434
C          9.90673        8.30432       12.34926
N          9.27146        9.01679       11.43842
C         10.11129        9.97403       10.89633
C         11.39097        9.99304       11.40197
S         11.55996        8.76275       12.57822
C         12.42130       10.90049       11.02411
N         13.25050       11.65145       10.71808
H         11.50637       -7.50787       -0.02146
H          6.51920       -5.48351       -2.57206
H          4.60428       -0.82478        3.03064
H          5.58708       -2.33839        5.31380
H          5.66671       -2.44094        9.54911
H          3.44175       -2.56508        8.46253
H          4.10802       -1.89745        6.98151
H          4.04230       -0.59402        9.61277
H          3.07619       -0.25925        8.34439
H          5.60603       -4.18276        7.03728
H          4.75551       -4.50628        8.54465
H          7.66499       -4.24138        8.36755
H          6.86477       -5.65768        8.27716
H          7.44044       -1.80632       10.66153
H          9.95477       -1.56731       11.07246
H         11.26305        0.35933       10.01798
H         10.79895        0.46708        7.62172
H         10.02579        0.09216        5.29515
H          8.92231       -0.54296        3.21465
H          8.90844       -0.25220       12.71477
H          8.96481        1.97940       10.60188
H          7.43293        1.16096       14.11926
H          8.69127        8.56026       14.92110
H          9.72246       10.64435       10.13678
