97

C         -5.56854       -2.25140       -9.64670
C         -4.59892       -2.88304       -8.94912
C         -3.87584       -4.01175       -9.45915
N         -3.28836       -4.92257       -9.87123
C         -4.13946       -2.38695       -7.70064
N         -3.77960       -1.95333       -6.68449
C         -5.94832       -2.55467      -11.06310
C         -6.48284       -1.39027      -11.61673
C         -6.89288       -1.27609      -12.93811
C         -6.73909       -2.40320      -13.77522
C         -6.22513       -3.58646      -13.22555
C         -5.84668       -3.69322      -11.86030
S         -6.11602       -4.82644      -14.42490
C         -6.70336       -3.80159      -15.65436
C         -7.01877       -2.55313      -15.17473
C         -6.49923       -0.30827      -10.62374
O         -6.50775        0.87789      -10.88985
C         -6.23492       -0.96536       -9.29464
C         -6.67082       -0.47899       -8.11221
C         -7.55934        0.72110       -8.02122
N         -8.45124        1.01829       -8.93767
C         -8.96480        2.19970       -8.52136
C         -8.41599        2.55711       -7.23777
C         -8.98190        3.87848       -6.84273
O         -8.78762        4.52723       -5.83950
C         -9.84074        4.22312       -8.00319
C         -9.78144        3.15366       -8.96419
N        -10.54724        3.45340      -10.04566
C        -11.02332        4.63073       -9.74552
C        -10.62326        5.20740       -8.44233
C         -7.55726        1.63020       -6.81264
C         -6.77157        1.58547       -5.60940
C         -7.27963        1.63987       -4.36327
S         -6.26700        1.75551       -2.94594
C         -6.10045        0.05229       -2.48140
C         -6.99603       -0.93577       -2.84903
S         -6.52233       -2.49099       -2.32971
C         -5.14016       -1.85799       -1.54647
C         -5.02816       -0.48309       -1.66687
S         -3.58229        0.36098       -1.03980
C         -4.24591        1.41473        0.17469
C         -3.48466        2.28326        0.87382
C         -4.14813        3.23206        1.80633
N         -5.30314        2.94819        2.36337
C         -5.63574        4.08831        3.00751
C         -4.61134        5.08961        2.84254
C         -5.08434        6.34167        3.50168
O         -4.55350        7.42854        3.55616
C         -6.40985        5.94441        4.04548
C         -6.65581        4.56801        3.70958
N         -7.87358        4.18102        4.16984
C         -8.32245        5.26390        4.74104
C         -7.44172        6.45256        4.70822
C         -3.57370        4.59909        2.16343
C         -2.30861        5.20267        1.81924
C         -1.41861        5.67931        2.71843
C         -0.06318        6.10434        2.35746
C          1.08357        5.54941        2.80252
C          1.30587        4.41987        3.72684
C          0.66545        3.23052        3.58892
C          0.88197        2.09793        4.42275
N          1.05678        1.17615        5.09755
C          0.09394        2.94769        2.32375
N         -0.22321        2.77355        1.21531
C          2.76711        4.36591        4.03282
C          3.41999        5.10088        3.03965
C          2.44732        5.94501        2.29846
O          2.70861        6.75057        1.43034
C          4.76465        4.90777        2.73702
C          5.48691        3.94635        3.49444
C          4.85114        3.32739        4.58069
C          3.49360        3.55767        4.89966
S          5.90937        2.23438        5.39568
C          7.16156        2.49128        4.27133
C          6.81846        3.42775        3.32323
H         -7.29724       -0.33951      -13.31245
H         -5.46987       -4.64335      -11.49596
H         -6.79566       -4.15964      -16.67133
H         -7.41480       -1.76235      -15.80081
H         -6.50136       -0.99287       -7.17330
H        -11.69513        5.20931      -10.40097
H        -10.89077        6.15161       -8.02190
H         -5.69269        1.55813       -5.74443
H         -8.35518        1.68999       -4.19672
H         -7.90419       -0.84285       -3.42751
H         -4.46688       -2.54812       -1.05664
H         -5.31815        1.38936        0.33647
H         -2.41802        2.33795        0.74629
H         -9.30526        5.33923        5.23100
H         -7.62946        7.43335        5.09596
H         -2.04983        5.18928        0.76100
H         -1.65401        5.67925        3.78259
H         -0.00438        6.90119        1.61307
H          5.21949        5.40769        1.88595
H          3.03805        3.01117        5.71936
H          8.09136        1.94498        4.36141
H          7.48839        3.71772        2.52253
