119

C          8.76007       -8.81145        6.98391
C          8.79037       -9.64734        8.09332
F          7.69345      -10.34203        8.42089
C          9.92966       -9.75685        8.87864
C         11.06299       -9.00671        8.55914
C         11.05157       -8.12721        7.46439
C          9.87918       -8.03576        6.65509
C          9.82136       -7.12970        5.58194
C         10.87957       -6.25628        5.36654
C         12.02156       -6.36301        6.17500
C         12.14814       -7.29843        7.19080
C         12.95271       -5.25679        5.90024
O         14.05367       -5.10111        6.38448
C         12.26170       -4.37809        4.90312
C         10.97687       -5.00056        4.55299
C          9.82580       -4.33546        4.30871
C          9.50140       -3.17157        5.06167
N          9.21812       -2.28295        5.75279
C          8.81149       -4.91024        3.49231
N          8.02096       -5.39243        2.79509
C         12.87221       -3.28096        4.43062
C         12.41788       -2.42468        3.38066
C         12.18032       -2.79568        1.95992
N         11.84067       -1.83248        1.15033
C         11.84613       -0.74111        1.96119
C         12.18556       -1.11254        3.31699
C         12.18217        0.11539        4.17348
S         12.47084        0.24801        5.80060
C         11.85362        1.18040        3.17498
C         11.67283        0.57162        1.87541
N         11.39252        1.51127        0.93562
C         11.39348        2.61829        1.62407
C         11.66901        2.49460        3.07673
C         11.70159        3.56810        4.04018
C         10.52006        3.95301        4.68405
C         10.57552        5.00467        5.58603
C         11.79628        5.65812        5.87040
C         12.96515        5.28820        5.22583
C         12.91261        4.23880        4.30571
C         11.56061        6.69170        6.84263
C         10.18940        6.72247        7.15415
C          9.42672        5.64008        6.38925
C          8.34251        6.25470        5.46259
C          8.85275        7.23606        4.40595
C          8.82337        4.55752        7.33284
C          7.80478        5.02858        8.36877
C          9.67387        7.67705        8.01138
C         10.53701        8.58628        8.63183
C         11.91465        8.53208        8.33923
C         12.43400        7.59322        7.43690
C         10.04543        9.59615        9.58258
C          8.78008        9.66547       10.02288
C          8.32223       10.58564       11.00486
C          8.89307       11.90293       11.37712
N          8.33474       12.51528       12.38370
C          7.34734       11.65988       12.74562
C          7.30662       10.51240       11.86112
C          6.19541        9.60037       12.28198
S          5.64528        8.20241       11.57770
C          5.69514       10.29203       13.50535
C          6.43946       11.51381       13.70333
N          6.02122       12.16720       14.81462
C          5.07661       11.38584       15.25666
C          4.80499       10.14899       14.48143
C          3.78972        9.18596       14.76525
C          3.66849        8.48103       15.89729
C          2.31197        7.95619       16.26593
O          1.36984        7.74692       15.53231
C          2.32382        7.86493       17.74003
C          1.25031        7.54941       18.55548
C          1.44860        7.57540       19.94295
C          2.71463        7.97113       20.47074
C          2.90164        8.00072       21.85683
C          1.86873        7.62828       22.70679
C          0.63435        7.23471       22.20739
C          0.42053        7.21509       20.82796
F          2.07104        7.64134       24.03064
C          3.77278        8.30663       19.60922
C          3.59170        8.20636       18.23953
C          4.51623        8.34899       17.08617
C          5.83906        8.05255       17.11367
C          6.57176        7.77222       15.92426
N          7.17219        7.50227       14.96915
C          6.56234        7.85540       18.32484
N          7.14293        7.71679       19.32010
H          7.83928       -8.74840        6.40991
H          9.92229      -10.41223        9.74374
H         11.94276       -9.09092        9.19467
H          8.90848       -7.07485        4.99512
H         13.04500       -7.31570        7.80573
H         13.83658       -2.99682        4.85735
H         12.30026       -3.84175        1.64368
H         11.21066        3.61505        1.19566
H          9.57803        3.45044        4.48321
H         13.90024        5.80207        5.41876
H         13.82619        3.94764        3.79041
H          7.59479        6.78660        6.06359
H          7.80475        5.45132        4.94357
H          9.36148        8.09284        4.85786
H          8.01042        7.62427        3.82384
H          9.54003        6.75441        3.70447
H          9.62701        4.03967        7.87432
H          8.33305        3.78971        6.71945
H          8.28821        5.57866        9.18165
H          7.31353        4.16335        8.82684
H          7.02408        5.65668        7.93239
H          8.60491        7.69386        8.17992
H         12.60584        9.22510        8.81462
H         13.49050        7.57243        7.22210
H         10.80017       10.27712        9.96839
H          8.03161        8.95115        9.69576
H          9.73824       12.30953       10.80349
H          4.48885       11.59655       16.16545
H          2.97158        9.17256       14.04160
H          0.29176        7.28484       18.11698
H          3.85345        8.29363       22.29464
H         -0.15210        6.94155       22.89535
H         -0.55204        6.90391       20.45186
H          4.71891        8.62500       20.03772
