93

C         -0.39536       -4.40484       -2.80128
C          0.86214       -4.56033       -2.31064
C          1.53718       -5.81398       -2.28705
N          2.10049       -6.82829       -2.25829
C          1.64303       -3.48106       -1.80632
N          2.27944       -2.60539       -1.38678
C         -1.23459       -5.47163       -3.43794
C         -2.34791       -4.86686       -4.02401
C         -3.35441       -5.54678       -4.69732
C         -3.25069       -6.94788       -4.79231
C         -2.13931       -7.57823       -4.21418
C         -1.12113       -6.85815       -3.52937
S         -2.21147       -9.28991       -4.45622
C         -3.67809       -9.17830       -5.28590
C         -4.14035       -7.89544       -5.40066
Br        -4.58704      -10.66128       -5.98056
C         -2.35190       -3.42063       -3.79753
O         -3.20279       -2.66850       -4.22383
C         -1.15744       -3.12672       -2.93537
C         -0.96298       -1.91684       -2.37964
C         -1.76159       -0.78450       -2.68820
O         -1.38378        0.15449       -3.63787
C         -2.94518       -0.33370       -2.17628
C         -3.94972       -0.66883       -1.21834
O         -4.00072       -1.65209       -0.50079
N         -4.84341        0.37640       -1.28282
C         -4.51725        1.33760       -2.21753
O         -5.15528        2.34815       -2.45480
C         -3.28694        0.87210       -2.79556
C         -2.32210        1.18367       -3.72471
C         -2.14115        2.27089       -4.62287
C         -3.00676        3.28992       -4.67163
C         -2.84894        4.46689       -5.48540
C         -3.70692        5.51112       -5.51982
C         -5.00045        5.58653       -4.74240
C         -3.43704        6.75603       -6.33603
N         -2.58657        6.43617       -7.46511
C         -2.16497        7.37016       -8.37404
C         -1.54585        7.09114       -9.52560
C         -1.18955        8.09771      -10.52888
C          0.02438        7.97371      -11.20723
C          0.35709        8.85995      -12.23483
N          1.56977        8.57492      -12.86459
C          2.16735        7.56438      -12.28182
S          1.32408        6.84612      -10.99200
C         -0.52527        9.92688      -12.52468
C         -1.75222       10.03601      -11.84860
C         -2.10439        9.11865      -10.85265
N         -3.36860        9.31125      -10.29790
C         -3.94474       10.35982      -10.82749
S         -3.04389       11.18435      -12.01547
C         -0.21105       10.89871      -13.59538
C          0.97350       11.37619      -14.01207
C          2.36225       11.15716      -13.60262
C          2.86566       11.16073      -12.34378
C          4.24779       10.96027      -12.07023
N          5.37283       10.76648      -11.85705
C          2.05106       11.39946      -11.20210
N          1.40187       11.60456      -10.25972
C          3.17308       11.21826      -14.84272
C          2.42324       11.88166      -15.81675
C          1.03206       12.05963      -15.35081
O          0.12886       12.59160      -15.96053
C          2.94230       12.26456      -17.04619
C          4.30055       11.95712      -17.30522
C          5.01176       11.18934      -16.36884
C          4.45128       10.77267      -15.14250
S          6.62079       10.87089      -16.90528
C          6.41554       11.83306      -18.27452
C          5.14413       12.32478      -18.40993
Br         7.80106       12.19261      -19.48155
H         -4.19936       -5.00908       -5.11976
H         -0.30362       -7.42205       -3.09657
H         -5.06759       -7.62635       -5.89259
H         -0.15690       -1.70855       -1.69415
H         -5.66755        0.44262       -0.71367
H         -1.25321        2.25840       -5.24914
H         -3.87830        3.28208       -4.03842
H         -1.92584        4.51466       -6.06328
H         -5.38724        4.61136       -4.43812
H         -5.79174        6.03801       -5.35053
H         -4.86247        6.20045       -3.84687
H         -2.96052        7.50813       -5.69614
H         -4.37662        7.17628       -6.71295
H         -2.79257        5.53616       -7.89396
H         -2.40091        8.39444       -8.08831
H         -1.27755        6.06217       -9.74626
H          3.14335        7.21441      -12.59452
H         -4.93404       10.68101      -10.52690
H         -1.09034       11.20849      -14.16521
H          2.33300       12.81002      -17.76130
H          5.03841       10.16225      -14.46598
H          4.82467       12.95042      -19.23420
