114

C         -0.18975        3.17722        2.70000
C          0.74244        2.31550        2.21893
C          2.13811        2.46046        2.47237
N          3.27353        2.56908        2.67388
C          0.42380        1.20804        1.38248
N          0.18362        0.29797        0.69951
C          0.09878        4.42068        3.50285
C         -1.07970        5.15412        3.58875
C         -1.24422        6.34671        4.28430
C         -0.14012        6.83748        4.99288
C          1.07566        6.14358        4.90284
C          1.21926        4.93997        4.14857
S          2.29542        6.94838        5.83150
C          1.20171        8.10932        6.39112
C         -0.05268        7.96999        5.86641
Br         1.64879        9.45080        7.61946
C         -2.16738        4.49825        2.89353
O         -3.22904        5.05562        2.72217
C         -1.67163        3.14996        2.46812
C         -2.48882        2.16970        2.03352
C         -3.93378        2.16574        1.91743
C         -4.61468        1.50066        0.96867
C         -6.08581        1.76590        1.05570
C         -6.22724        2.11570        2.54357
C         -4.91134        2.85491        2.84156
C         -7.54785        2.89406        2.63830
C         -7.80546        3.47602        1.22770
C         -7.99415        4.93487        1.48579
C         -7.92482        5.24126        2.78521
C         -7.62326        4.05492        3.63911
C         -6.61051        3.03852        0.39905
C         -6.08484        3.77726       -0.59618
C         -4.89624        3.48284       -1.36087
C         -3.81448        4.27502       -1.46646
C         -2.68555        4.00826       -2.32311
C         -1.81635        5.02586       -2.39968
C         -2.20465        6.18235       -1.61115
S         -3.60778        5.78300       -0.61892
C         -1.68346        7.42047       -1.69326
C         -0.63316        7.87208       -2.58625
C         -0.55706        9.20889       -2.69318
C         -1.54202        9.90737       -1.89047
S         -2.32034        8.79097       -0.80292
C         -1.88044       11.19575       -2.06665
C         -2.95843       11.93151       -1.44150
C         -3.57914       12.99205       -2.00672
C         -4.81161       13.28253       -1.22695
C         -4.29911       12.90488        0.15398
C         -3.59697       11.59123       -0.10050
C         -5.53136       13.04472        1.02903
C         -6.20494       14.32029        0.42516
C         -6.01789       15.34072        1.50008
C         -5.47910       14.82520        2.61058
C         -5.20673       13.36143        2.49266
C         -5.44156       14.58965       -0.88777
C         -5.37456       15.79709       -1.46581
C         -4.60761       16.20137       -2.61009
C         -4.61962       15.76880       -3.87623
C         -5.32110       14.72093       -4.63542
C         -6.58635       14.27119       -4.44972
C         -7.16790       13.24731       -5.25185
N         -7.64071       12.40428       -5.89387
C         -7.48400       14.83775       -3.49712
N         -8.26927       15.28562       -2.76734
C         -4.42881       14.38633       -5.79694
C         -3.41426       15.34679       -5.86232
C         -3.50166       16.27643       -4.73389
O         -2.76292       17.21836       -4.53369
C         -2.42062       15.38301       -6.83332
C         -2.43380       14.37396       -7.81716
C         -3.42795       13.38544       -7.75291
C         -4.43326       13.37168       -6.74821
S         -3.23847       12.23794       -9.03268
C         -1.89169       13.04781       -9.64871
C         -1.55332       14.16347       -8.93226
Br        -0.95011       12.47232      -11.16219
H         -2.21032        6.84467        4.30472
H          2.19069        4.46001        4.13822
H         -0.89053        8.61606        6.10289
H         -2.07240        1.22295        1.70277
H         -4.18342        0.88683        0.19054
H         -6.69871        0.89871        0.79142
H         -6.27874        1.21202        3.16684
H         -4.62985        2.75785        3.89425
H         -5.03066        3.90533        2.58070
H         -8.34903        2.17747        2.86698
H         -8.71836        3.04496        0.80066
H         -8.21826        5.65544        0.71047
H         -8.06919        6.23660        3.18470
H         -8.43709        3.89365        4.35439
H         -6.70378        4.20843        4.20932
H         -6.56210        4.72132       -0.86211
H         -4.93556        2.55448       -1.93528
H         -2.59150        3.08944       -2.88457
H         -0.94243        5.00940       -3.03318
H         -0.01032        7.19696       -3.15473
H          0.12528        9.72236       -3.35614
H         -1.35706       11.74916       -2.84640
H         -3.33793       13.38633       -2.97888
H         -5.60731       12.60927       -1.58412
H         -3.53554       13.62829        0.49811
H         -4.31084       10.76582       -0.18553
H         -2.86166       11.38760        0.68304
H         -6.18010       12.16460        0.94366
H         -7.26651       14.13388        0.22740
H         -6.32444       16.37356        1.40081
H         -5.28348       15.39353        3.50916
H         -5.86365       12.80737        3.17066
H         -4.16837       13.12871        2.75027
H         -5.89690       16.62773       -0.98850
H         -3.90718       17.00059       -2.34883
H         -1.65876       16.15806       -6.81933
H         -5.15959       12.56742       -6.75803
H         -0.71865       14.81021       -9.17629
