86

C          0.42296        1.17446        4.21030
S         -0.84289        0.23113        4.86865
C         -0.57132        0.84697        6.44145
C         -1.38555        0.38506        7.54713
O         -2.29400       -0.43471        7.49836
O         -0.98017        1.00961        8.69365
C         -1.70899        0.62528        9.85692
C          0.46437        1.76290        6.44721
C          1.05515        1.95092        5.16216
C          2.16119        2.81680        4.88229
C          2.74384        3.02776        3.68218
C          3.86364        3.95817        3.84975
C          3.89235        4.28068        5.28213
C          2.88363        3.61267        5.86778
C          4.76681        5.13162        5.99686
N          5.45046        5.83653        6.61534
C          4.67164        4.38175        2.85556
C          5.81332        5.28181        3.00300
C          6.42226        5.44200        1.80503
C          5.66245        4.65690        0.83878
C          4.63098        4.03795        1.43332
C          3.72980        3.20438        0.73326
N          2.99514        2.52496        0.14531
C          7.61472        6.23495        1.61138
N          7.94155        6.96531        0.45689
C          7.17814        7.12588       -0.76242
C          6.18746        8.27489       -0.71192
C          9.18708        7.61750        0.59079
O          9.76692        8.34329       -0.19085
C          9.63647        7.20428        1.92794
C          8.61896        6.36234        2.49263
C          9.09299        5.92902        3.82439
O          8.52974        5.18798        4.60298
N         10.34589        6.56047        3.93467
C         11.20295        6.38372        5.09308
C         12.15296        5.20591        4.93068
C         10.64358        7.30806        2.79673
C         11.88327        8.00832        2.65162
C         12.01550        9.16796        1.99740
C         13.26773        9.82295        1.93243
S         13.61800       10.75815        0.55856
C         15.17350       11.23519        1.13557
C         15.39636       10.67201        2.38348
C         14.31305        9.86121        2.83134
C         16.58364       10.88053        3.16172
N         17.53546       11.04347        3.80509
C         16.02381       12.09511        0.36519
C         15.67219       12.55996       -0.83912
C         16.50655       13.41246       -1.60734
S         15.91073       13.93980       -3.12812
C         17.31879       14.83429       -3.47880
C         17.45743       15.55479       -4.73190
O         18.43119       16.22558       -5.05430
O         16.35680       15.37069       -5.51626
C         16.39489       16.00048       -6.79079
C         18.22872       14.75287       -2.44441
C         17.76483       13.93353       -1.37393
H          0.63225        1.09234        3.15173
H         -1.35046        1.23132       10.69338
H         -1.52577       -0.42854       10.08686
H         -2.77799        0.81734        9.72416
H          0.78373        2.26519        7.35294
H          2.42940        2.55628        2.76967
H          2.63843        3.64919        6.91917
H          6.14841        5.72534        3.92667
H          5.90702        4.54921       -0.20517
H          6.67380        6.19960       -1.02381
H          7.88126        7.31268       -1.58332
H          5.47400        8.15505        0.10854
H          5.62433        8.32027       -1.65054
H          6.70131        9.23250       -0.58090
H         10.56936        6.21081        5.96938
H         11.76423        7.30627        5.28149
H         11.59945        4.27596        4.76686
H         12.76756        5.08674        5.82840
H         12.82501        5.34590        4.07782
H         12.75057        7.55094        3.11896
H         11.17327        9.62680        1.48316
H         14.29651        9.34696        3.78544
H         16.98282       12.36213        0.79893
H         14.71815       12.30053       -1.29108
H         15.39627       15.91559       -7.22866
H         17.10513       15.48072       -7.43933
H         16.64392       17.06112       -6.69970
H         19.19110       15.25103       -2.45611
H         18.33922       13.73780       -0.47620
