129

C         -2.88940       13.22216       13.57259
S         -3.33605       12.85402       11.97577
C         -2.37651       14.13343       11.30854
C         -1.72225       14.80585       12.33779
C         -2.04217       14.29966       13.63484
S         -1.42639       14.91383       15.16139
C         -1.86972       16.68153       15.13360
C         -2.54728       17.26692       13.89517
C         -1.63177       17.53704       12.69995
S         -0.60690       16.16178       12.10368
C         -2.32918       14.39710        9.89723
C         -3.00443       13.68589        8.97831
C         -2.99027       13.91539        7.52338
C         -3.82324       13.11595        6.71765
C         -3.78694       13.26230        5.33773
C         -2.95263       14.23763        4.75956
C         -2.14803       15.05105        5.53356
C         -2.15988       14.87908        6.91555
C         -3.12154       14.23441        3.33200
C         -4.06869       13.25618        2.97517
C         -4.54629       12.49325        4.23970
C         -6.08721       12.54752        4.39411
C         -6.69277       13.93737        4.57674
C         -4.02863       11.02298        4.14729
C         -4.42919       10.07271        5.27728
C         -4.44023       13.10426        1.64178
C         -3.84798       13.93214        0.66448
C         -2.89280       14.89220        1.04934
C         -2.52098       15.04234        2.38357
C         -4.27093       13.79952       -0.74173
C         -3.49777       14.08253       -1.80169
C         -3.88308       13.81070       -3.19233
C         -3.32729       14.56994       -4.24898
N         -2.70743       15.81695       -4.31638
C         -3.21505       16.97406       -3.57762
C         -4.20851       17.78563       -4.40862
C         -1.98534       15.92863       -5.50438
C         -2.58602       14.99550       -6.36139
C         -3.43653       14.15647       -5.57750
C         -4.22829       13.03174       -5.88744
C         -4.83821       12.31003       -4.86167
C         -4.63481       12.67277       -3.53786
C         -2.23726       14.98035       -7.72779
C         -1.25083       15.83890       -8.19496
C         -0.60009       16.70139       -7.31752
C         -0.95428       16.79321       -5.95450
C         -0.17636       17.61223       -5.00532
C          0.56309       18.67683       -5.36915
C          1.43298       19.41701       -4.46920
C          2.49414       20.16383       -4.82563
C          3.30937       20.90890       -3.89368
C          4.29955       21.61017       -4.47132
C          4.34197       21.48712       -5.91802
S          3.10428       20.34165       -6.45255
C          5.14309       22.17555       -6.75538
C          6.15019       23.15891       -6.39765
C          6.67395       23.81284       -7.44737
C          6.13164       23.39838       -8.72291
S          5.03779       22.05494       -8.50368
C          6.39275       24.00905       -9.89216
C          5.83610       23.69373      -11.19569
C          5.62475       24.62233      -12.16504
C          5.01665       23.93566      -13.28376
C          4.54902       24.39043      -14.46166
C          3.94451       23.40011      -15.33607
C          3.35443       23.52293      -16.54033
C          2.84648       22.21275      -16.98148
C          3.16011       21.28034      -16.05340
C          3.84555       21.97150      -14.99142
C          4.33674       21.51501      -13.82817
C          4.92156       22.51041      -12.95613
C          5.44624       22.37716      -11.73208
C          2.13755       21.93526      -18.20409
C          0.93072       21.35662      -18.24670
H         -3.27920       12.63102       14.38910
H         -0.96290       17.25094       15.36415
H         -2.54695       16.82401       15.98341
H         -2.97549       18.23655       14.18432
H         -3.41236       16.66300       13.59548
H         -0.94876       18.35701       12.94984
H         -2.24105       17.88648       11.85887
H         -1.70576       15.22884        9.59187
H         -3.62687       12.84814        9.27738
H         -4.48430       12.38371        7.17079
H         -1.51469       15.80943        5.08591
H         -1.50569       15.51499        7.50003
H         -6.40407       11.95158        5.25824
H         -6.55533       12.08436        3.51503
H         -6.45630       14.34182        5.56586
H         -7.78423       13.87675        4.50389
H         -6.34820       14.64487        3.81825
H         -2.93158       11.02073        4.08666
H         -4.38217       10.57093        3.21113
H         -4.10501       10.42627        6.25734
H         -3.95469        9.09687        5.12536
H         -5.50946        9.90446        5.30536
H         -5.17336       12.35385        1.36093
H         -2.43078       15.54747        0.31648
H         -1.78549       15.78843        2.66318
H         -5.27707       13.40686       -0.87975
H         -2.48500       14.45484       -1.67821
H         -2.36952       17.58352       -3.25369
H         -3.72525       16.61371       -2.68071
H         -3.70667       18.31021       -5.22865
H         -4.71065       18.53434       -3.78848
H         -4.97971       17.14406       -4.85189
H         -4.33568       12.70576       -6.91716
H         -5.42780       11.42774       -5.09799
H         -5.04848       12.03360       -2.76060
H         -2.70706       14.27040       -8.40266
H         -0.95336       15.80676       -9.24325
H          0.21905       17.29315       -7.71685
H         -0.13536       17.24517       -3.98342
H          0.54733       19.02389       -6.40019
H          1.17379       19.35050       -3.41502
H          3.11454       20.91776       -2.83129
H          4.97859       22.23640       -3.91404
H          6.43839       23.36341       -5.37658
H          7.41853       24.59380       -7.35844
H          7.05224       24.87578       -9.88380
H          5.81035       25.68244      -12.11423
H          4.58274       25.43182      -14.75126
H          3.22260       24.43371      -17.10229
H          2.93767       20.22650      -16.07815
H          4.27692       20.47953      -13.52133
H          5.53970       21.44616      -11.19738
H          2.62097       22.24944      -19.12563
H          0.40466       21.06278      -17.34288
H          0.43127       21.18494      -19.19433
