100

C         -9.29459       -2.22622        0.75670
C         -9.49944       -3.17851       -0.18157
C         -9.65154       -4.55384        0.14974
N         -9.77435       -5.67406        0.42545
C         -9.65166       -2.85286       -1.56023
N         -9.76743       -2.57913       -2.68167
C         -9.25075       -2.41445        2.23413
C         -9.55993       -1.19179        2.83964
C         -9.52863       -0.97153        4.20844
C         -9.06695       -2.02910        5.02243
C         -8.73206       -3.25262        4.42326
C         -8.84415       -3.47901        3.02759
S         -8.14233       -4.37665        5.59422
C         -8.28003       -3.24676        6.86162
C         -8.80434       -2.05121        6.43248
C         -9.70214       -0.13596        1.82540
O        -10.06316        1.00718        2.01200
C         -9.23280       -0.76846        0.54954
C         -8.57163       -0.07680       -0.39321
C         -8.27342        1.36476       -0.29530
C         -9.03191        2.36193       -0.91638
C         -8.70493        3.75963       -0.78372
N         -9.52526        4.67253       -1.33843
C        -10.55450        4.25820       -2.11718
C        -10.83609        2.92473       -2.27190
N        -10.08985        1.96902       -1.66015
C        -11.92823        2.45474       -3.06425
N        -12.83394        2.09546       -3.70255
C        -11.26846        5.29733       -2.79592
N        -11.84873        6.12840       -3.36261
C         -7.54298        4.21791       -0.11820
C         -6.78702        3.23237        0.57892
C         -7.16422        1.77740        0.49414
N         -6.35377        0.98077        1.21510
S         -5.23629        1.96497        1.94250
N         -5.70146        3.43870        1.34669
C         -7.05319        5.62357       -0.07275
C         -6.93148        6.48305       -1.10194
C         -6.36946        7.81710       -1.01947
C         -6.15406        8.39240       -2.21639
C         -6.50588        7.53773       -3.33717
S         -7.34181        6.11436       -2.75151
C         -6.13375        7.64929       -4.62553
C         -5.22920        8.62953       -5.19199
C         -4.66706        8.21496       -6.33967
C         -5.11811        6.90243       -6.75977
S         -6.50306        6.41075       -5.83859
C         -4.51389        6.14136       -7.68315
C         -4.86469        4.75075       -8.03316
C         -4.39509        3.62498       -7.33195
C         -4.65399        2.27739       -7.78391
N         -4.11223        1.23434       -7.11276
C         -3.34266        1.48247       -6.01954
C         -3.12066        2.76396       -5.57769
N         -3.63479        3.83574       -6.23353
C         -2.32398        3.05984       -4.42432
N         -1.67267        3.27240       -3.48690
C         -2.74581        0.33670       -5.39841
N         -2.23315       -0.57067       -4.88674
C         -5.42266        1.99403       -8.93851
C         -5.88765        3.11628       -9.68567
C         -5.61039        4.52069       -9.21580
N         -6.11036        5.45639      -10.04029
S         -6.85938        4.66627      -11.28135
N         -6.56144        3.09593      -10.85024
C         -5.60823        0.60200       -9.43146
C         -6.59872       -0.00299      -10.10971
C         -7.90614        0.40742      -10.63288
C         -8.84836        1.13283       -9.98370
C        -10.12807        1.40555      -10.54336
N        -11.16304        1.63893      -11.01319
C         -8.63767        1.61839       -8.65950
N         -8.43654        2.01384       -7.58631
C         -8.12099       -0.37542      -11.88216
C         -7.24162       -1.46148      -11.86866
C         -6.30217       -1.34092      -10.73711
O         -5.42906       -2.12896      -10.44022
C         -7.21077       -2.44116      -12.85448
C         -8.08631       -2.29176      -13.95620
C         -8.92061       -1.16514      -14.00737
C         -8.95581       -0.19220      -12.97676
S         -9.85071       -1.14253      -15.46181
C         -9.18864       -2.61642      -16.00085
C         -8.27163       -3.12534      -15.11177
H         -9.75477        0.00758        4.62003
H         -8.52611       -4.43177        2.61870
H         -7.97005       -3.50995        7.86358
H         -8.96344       -1.20605        7.09160
H         -8.09123       -0.56815       -1.23464
H         -6.67710        5.93307        0.90115
H         -6.12278        8.28631       -0.07636
H         -5.72173        9.37642       -2.33652
H         -4.97100        9.55597       -4.69782
H         -3.90702        8.76858       -6.87347
H         -3.63886        6.52188       -8.20213
H         -4.72609       -0.01374       -9.22505
H         -6.51534       -3.27359      -12.79222
H         -9.60732        0.66853      -13.08338
H         -9.50046       -3.04020      -16.94612
H         -7.74263       -4.05554      -15.28259
