56

C         10.06427        0.24359       -2.46716
C          9.48864       -0.44523       -1.47880
C          9.16217        0.07744       -0.18043
C          8.51031       -0.79762        0.59555
C          8.26925       -2.08474       -0.03978
S          9.02041       -2.11058       -1.64079
C          7.52671       -3.08718        0.46361
C          6.79792       -3.07661        1.72014
C          5.93626       -4.09468        1.85467
C          5.92039       -4.97619        0.71170
S          7.21566       -4.59003       -0.39262
C          5.00625       -5.93216        0.50603
C          4.89154       -6.75583       -0.68141
C          4.54073       -6.24239       -1.87102
N          5.06505       -8.10212       -0.54411
N          6.08386       -8.47241        0.07642
C          6.24702       -9.83617        0.18665
C          7.49025      -10.33131        0.26885
N          5.17107      -10.70873        0.16901
N          4.11457      -10.28976        0.69955
C          2.98195      -11.05743        0.53000
C          3.02462      -12.40049        0.57158
N          1.75180      -10.45154        0.34882
N          1.71576       -9.20233        0.36453
C          0.46000       -8.66770        0.21072
C          0.08838       -7.44918        0.63215
C         -1.24531       -6.90510        0.51921
C         -1.37828       -5.68784        1.06730
C         -0.15301       -5.15995        1.64575
S          1.15621       -6.32295        1.42959
C         -0.01111       -3.97673        2.27636
C         -1.06640       -3.01195        2.53784
C         -0.67224       -1.95160        3.25711
C          0.72437       -1.98692        3.60445
S          1.51869       -3.38594        2.94147
C          1.35990       -1.08229        4.35346
H         10.33980        1.28515       -2.34613
H         10.26388       -0.21361       -3.43125
H          9.41090        1.08513        0.12279
H          8.17792       -0.56230        1.59436
H          6.89849       -2.29556        2.46009
H          5.27211       -4.22358        2.69988
H          4.25074       -6.12882        1.26267
H          4.37359       -5.18150       -2.00971
H          4.42766       -6.89230       -2.73063
H          8.34785       -9.66841        0.25579
H          7.66931      -11.39700        0.33524
H          3.96092      -12.92390        0.71936
H          2.12365      -12.99085        0.45825
H         -0.27400       -9.30281       -0.28034
H         -2.05834       -7.44271        0.05024
H         -2.31606       -5.14944        1.07498
H         -2.08633       -3.14264        2.20635
H         -1.32809       -1.14747        3.56061
H          0.84242       -0.22714        4.77436
H          2.41808       -1.17829        4.57562
