109

C          4.85123      -15.10791       10.63569
C          5.07794      -16.12734        9.70282
C          4.74780      -15.95984        8.35026
C          4.21807      -14.75527        7.89101
C          4.04312      -13.72655        8.80395
C          4.32575      -13.90344       10.19105
C          3.86159      -12.67402       10.92946
C          4.23244      -12.24207       12.15498
C          5.17639      -12.94629       12.95382
N          5.95885      -13.51781       13.59220
C          3.77256      -10.99818       12.67772
N          3.38643       -9.98738       13.09517
C          3.01427      -11.94606        9.94128
C          3.55505      -12.33580        8.62670
C          3.95408      -11.50652        7.63459
C          3.88003      -10.08751        7.78197
N          3.76546       -8.93816        7.89033
C          4.47861      -11.98659        6.40336
N          4.84582      -12.38341        5.37698
C          1.76892      -11.49134       10.21076
C          0.64022      -11.26105        9.28505
C          0.69234      -10.88164        7.93518
C         -0.42018      -10.72940        7.08186
C         -1.74705      -10.92417        7.48981
C         -1.86724      -11.28734        8.86194
C         -0.69133      -11.45048        9.73826
N         -1.12711      -11.81032       10.95543
O         -2.50144      -11.85710       10.87460
N         -2.94839      -11.54977        9.61219
C         -2.85515      -10.74426        6.54348
C         -2.79906      -10.39452        5.17864
C         -4.08500      -10.28803        4.60946
C         -5.04029      -10.56379        5.55268
S         -4.49415      -10.95246        7.05621
C         -6.30524      -10.42464        4.97618
C         -6.17600      -10.05840        3.66186
C         -4.74773       -9.96036        3.33853
C         -4.18590       -9.65169        2.15887
C         -4.97291       -9.35515        1.00864
N         -5.62354       -9.10767        0.08577
C         -2.77087       -9.60716        1.99954
N         -1.61484       -9.57045        1.89308
C         -7.44885       -9.88580        3.06175
C         -8.47520      -10.13755        3.98099
S         -7.83951      -10.58832        5.54057
C         -9.90508      -10.05546        3.78041
C        -10.60029       -9.70648        2.65082
C        -12.04796       -9.73885        2.80952
C        -13.07777       -9.50776        1.87173
C        -12.70676       -9.33382        0.43270
C        -11.75936      -10.01200       -0.32729
C        -11.75009       -9.63306       -1.70321
C        -12.73609       -8.71926       -1.99373
S        -13.42453       -8.10888       -0.55513
C        -13.20330       -8.23044       -3.32455
Cl       -10.66857      -10.32467       -2.83443
C        -14.42935       -9.53411        2.28706
C        -14.80012       -9.75396        3.62802
C        -13.76477       -9.96725        4.60247
C        -12.41232      -10.00738        4.14014
S        -10.99502      -10.41147        5.01804
C        -14.07518      -10.13103        6.09535
C        -13.27423      -10.45594        7.19561
C        -13.92683      -10.42998        8.46861
C        -15.25124      -10.10838        8.35549
S        -15.65181       -9.82180        6.74073
C        -16.28657       -9.94244        9.41305
Cl       -13.09460      -10.74001        9.93111
C        -16.24915       -9.73462        3.71672
C        -16.93289       -9.61294        2.53355
S        -15.82898       -9.30355        1.29760
C        -18.34509       -9.62452        2.34812
C        -18.97511      -10.18349        1.30130
C        -18.29959      -10.92847        0.22781
O        -17.49705      -11.82976        0.44163
N        -18.69207      -10.49603       -1.01534
C        -20.01934      -10.18994       -1.28280
O        -20.42719      -10.02404       -2.42895
N        -20.86081      -10.10544       -0.17222
C        -20.41990       -9.93833        1.13268
O        -21.12864       -9.57172        2.06465
C        -22.27377       -9.89067       -0.41514
C        -17.80189      -10.76198       -2.12553
H          5.07473      -15.30446       11.67871
H          5.49730      -17.07599       10.03446
H          4.90291      -16.78050        7.65200
H          3.94436      -14.65857        6.84500
H          1.45414      -11.43839       11.25580
H          1.62274      -10.66734        7.44762
H         -0.19888      -10.43863        6.05460
H         -1.87220      -10.21691        4.64886
H         -7.63506       -9.58918        2.04019
H        -10.10116       -9.43557        1.72957
H        -11.10917      -10.78102        0.07079
H        -12.35987       -7.94865       -3.96164
H        -13.86752       -7.36396       -3.24262
H        -13.76270       -9.02500       -3.83398
H        -12.22459      -10.69043        7.16151
H        -16.21338      -10.73186       10.16711
H        -17.30174       -9.97674        9.00137
H        -16.15780       -8.97415        9.90727
H        -16.83514       -9.87008        4.60833
H        -18.93065       -9.11881        3.11611
H        -22.58303      -10.33348       -1.36598
H        -22.46318       -8.81310       -0.43876
H        -22.86493      -10.33700        0.39078
H        -16.75846      -10.70954       -1.79538
H        -17.95846      -10.02736       -2.92064
H        -18.00551      -11.76456       -2.51096
