115

O          2.21310       -4.31641       -9.91167
N          1.34064       -3.23751       -9.98060
C          2.03898       -2.18664       -9.52981
C          1.40126       -0.90963       -9.46893
N          0.91759        0.14402       -9.40801
C          3.34167       -2.54668       -9.13475
C          3.40041       -3.89292       -9.41293
C          4.44328       -4.84878       -9.31858
N          5.31532       -5.61289       -9.27251
C          4.40888       -1.79609       -8.54080
O          5.20211       -2.34556       -7.78912
O          4.43284       -0.45660       -8.92989
C          5.50127        0.34684       -8.46950
C          6.78583       -0.17241       -8.27449
C          7.73321        0.64231       -7.68757
C          7.44703        1.98950       -7.40073
C          6.20566        2.53564       -7.68987
C          5.21654        1.70015       -8.21630
C          8.60263        2.58653       -6.78274
C          9.62249        1.61922       -6.65176
C          9.14239        0.27502       -7.21088
C         10.04485       -0.21236       -8.37677
C         10.13991        0.73558       -9.57187
C          9.09673       -0.81652       -6.09913
C          8.16922       -0.52964       -4.91554
C         10.84810        1.94419       -6.08350
C         11.04704        3.25839       -5.64282
C         10.00521        4.20454       -5.74588
C          8.78405        3.87813       -6.32721
C         12.33013        3.61651       -5.02968
C         12.87524        4.84142       -5.11828
C         14.08991        5.17358       -4.46263
C         14.47397        6.38689       -3.93780
C         15.61585        6.31390       -3.04700
C         16.18731        7.25693       -2.14743
C         15.70526        8.67137       -2.10962
C         16.43445        9.84886       -1.97453
C         15.64353       11.03253       -2.06550
C         14.32796       10.74923       -2.34763
S         14.02840        9.07536       -2.17470
C         13.21996       11.66820       -2.74128
Cl        16.32545       12.59503       -1.91806
C         17.22109        6.84937       -1.27027
C         17.79931        5.57106       -1.35860
C         17.31667        4.66974       -2.34618
C         16.20175        5.04037       -3.13369
S         15.38632        4.09759       -4.33331
C         17.91993        3.30321       -2.51645
C         17.31754        2.08880       -2.83571
C         18.22442        1.00496       -3.00128
C         19.52314        1.37761       -2.75888
S         19.62997        3.05025       -2.43390
C         20.75250        0.53535       -2.81516
Cl        17.69944       -0.55629       -3.46866
C         18.80900        5.41713       -0.34339
C         18.92352        6.47375        0.52593
S         17.91528        7.74256        0.05214
C         19.73647        6.52172        1.71248
C         20.30909        7.63207        2.33243
C         21.01986        7.24945        3.48867
C         20.93960        5.89360        3.70036
S         20.07176        5.04904        2.57740
C         21.65077        5.56859        4.86460
C         22.20025        6.71404        5.38985
C         21.81692        7.85182        4.55520
C         22.10813        9.15374        4.73649
C         21.64739       10.15432        3.84197
N         21.26723       10.97281        3.10975
C         22.88122        9.59507        5.84189
N         23.51813        9.94630        6.74308
C         22.96153        6.43377        6.54276
C         22.95019        5.06496        6.82626
S         21.93542        4.18798        5.72401
O         23.59642        4.32080        7.70823
C         24.70046        4.81080        8.29561
O         24.83304        5.92467        8.77912
C         25.75998        3.84048        8.29054
C         26.85981        3.74316        9.17164
N         27.66948        2.72464        8.84627
O         27.10865        2.15054        7.71843
C         25.97678        2.81910        7.39181
C         25.30992        2.37527        6.21533
N         24.76497        2.04816        5.25217
C         27.16064        4.53447       10.32140
N         27.38068        5.17569       11.26285
H          7.04628       -1.19559       -8.51477
H          5.99616        3.58028       -7.48278
H          4.22714        2.10686       -8.40887
H          9.68155       -1.18103       -8.74538
H         11.06269       -0.39064       -8.00468
H          9.16190        0.90320      -10.03271
H         10.79298        0.30609      -10.33836
H         10.55912        1.70470       -9.28624
H         10.10817       -0.97683       -5.70319
H          8.78495       -1.77613       -6.53420
H          8.34343        0.45964       -4.48369
H          8.33442       -1.26777       -4.12325
H          7.11668       -0.59996       -5.20830
H         11.62585        1.19172       -5.99016
H         10.13224        5.21407       -5.36174
H          8.00058        4.62185       -6.40839
H         12.81525        2.81116       -4.48083
H         12.36436        5.64300       -5.64294
H         13.84890        7.25697       -4.07305
H         17.50847        9.87843       -1.84021
H         13.42789       12.70418       -2.45722
H         12.26874       11.38149       -2.28285
H         13.09326       11.64524       -3.83080
H         16.25565        1.95884       -2.99125
H         20.62081       -0.38622       -2.23701
H         21.63033        1.05257       -2.41550
H         20.96365        0.25990       -3.85356
H         19.39750        4.52174       -0.20383
H         20.20475        8.63829        1.94572
H         23.51623        7.15921        7.13161
