147

C          2.38355       -4.65484       -7.99036
C          1.18117       -4.89992       -8.64183
F          1.15424       -4.92638       -9.98044
C          0.00573       -5.09591       -7.92983
C          0.02974       -5.06897       -6.53410
C          1.22659       -4.81147       -5.84692
C          2.42076       -4.58049       -6.59273
C          3.61385       -4.22981       -5.93662
C          3.60706       -4.04822       -4.56229
C          2.44703       -4.37320       -3.84057
C          1.26040       -4.75485       -4.44657
C          2.69176       -4.23557       -2.39072
O          1.90383       -4.47382       -1.50419
C          4.12728       -3.80476       -2.26717
C          4.57814       -3.43504       -3.61178
C          5.40368       -2.41544       -3.96159
C          5.83201       -1.42664       -3.03463
N          6.11880       -0.53756       -2.34755
C          5.73143       -2.10287       -5.31278
N          6.00940       -1.84946       -6.40611
C          4.76738       -4.04089       -1.11185
C          6.21422       -3.98922       -0.88185
C          6.98924       -5.14239       -1.06445
C          8.35743       -5.07559       -0.82540
C          8.94714       -3.87577       -0.37542
C          8.19270       -2.73181       -0.20144
C          6.81983       -2.80472       -0.43398
C         10.34343       -4.09822       -0.10063
C         10.66759       -5.43764       -0.39466
C          9.42452       -6.17856       -0.93624
C          9.08905       -7.43149       -0.08655
C          8.78011       -7.17353        1.38850
C          9.69485       -6.53547       -2.42876
C          8.58905       -7.29092       -3.16167
C         11.95332       -5.91990       -0.17202
C         12.90785       -5.06015        0.39712
C         12.56937       -3.71747        0.66338
C         11.28780       -3.23003        0.41622
C         14.25858       -5.56257        0.68041
C         15.01238       -5.10730        1.69483
C         16.30699       -5.63950        1.91198
S         17.65223       -4.87090        1.21110
C         18.76926       -6.03310        1.81560
C         18.10360       -6.99246        2.57691
C         16.68326       -6.73364        2.66669
C         15.73122       -7.61044        3.43489
C         16.43625       -8.68831        4.26626
C         17.66869       -9.28041        3.57319
C         17.29010      -10.03927        2.31651
O         17.94369      -10.98488        1.88444
C         18.70441       -8.19241        3.26388
C         20.20502       -5.87039        1.47843
C         20.60211       -5.31552        0.24330
C         21.95278       -5.20951       -0.06139
C         22.93289       -5.59841        0.87088
C         22.57300       -6.13148        2.09262
C         21.21164       -6.27212        2.38516
C         24.23972       -5.38309        0.30421
C         24.09145       -4.90263       -1.00880
C         22.61318       -4.73117       -1.36827
C         22.20952       -5.61907       -2.57756
C         22.42182       -7.12332       -2.39724
C         22.23485       -3.23865       -1.60386
C         22.96728       -2.51473       -2.73172
C         25.19918       -4.68558       -1.80561
C         26.47793       -4.86788       -1.26600
C         26.61801       -5.33350        0.05495
C         25.49559       -5.59897        0.84523
C         27.66799       -4.60738       -2.08065
C         27.68571       -3.65800       -3.02939
C         28.83786       -3.36708       -3.83401
C         29.48659       -4.20049       -4.65537
C         30.85510       -3.77254       -5.07381
O         31.33917       -2.66060       -5.03933
C         31.54123       -5.00703       -5.47029
C         32.87328       -5.09482       -5.83683
C         33.37091       -6.34822       -6.19517
C         32.51844       -7.48988       -6.13716
C         33.02955       -8.73534       -6.52362
C         34.34463       -8.84544       -6.96294
C         35.18191       -7.73942       -7.01405
C         34.69835       -6.49147       -6.62443
F         34.80888      -10.03992       -7.35144
C         31.17659       -7.36067       -5.71940
C         30.66881       -6.10657       -5.41153
C         29.30505       -5.60183       -5.06536
C         28.13523       -6.23813       -5.33366
C         26.88101       -5.55512       -5.34741
N         25.85640       -5.01737       -5.42760
C         28.06498       -7.59538       -5.75547
N         28.00993       -8.71403       -6.07786
H          3.27494       -4.49118       -8.59045
H         -0.92338       -5.26134       -8.46630
H         -0.90054       -5.22147       -5.99004
H          4.50830       -4.05880       -6.52766
H          0.38118       -4.96275       -3.84314
H          4.20665       -4.41728       -0.25426
H          6.52553       -6.07905       -1.35705
H          8.64157       -1.79824        0.12238
H          6.22464       -1.90983       -0.26699
H          9.92373       -8.14299       -0.13822
H          8.21865       -7.94813       -0.50721
H          9.62177       -6.70669        1.90734
H          8.56612       -8.12286        1.89171
H          7.89897       -6.53675        1.51189
H         10.60460       -7.14658       -2.49815
H          9.90620       -5.61892       -2.99770
H          8.38820       -8.26320       -2.70403
H          8.89098       -7.47600       -4.19806
H          7.65828       -6.72176       -3.20263
H         12.20227       -6.94832       -0.41617
H         13.30797       -3.03074        1.07045
H         11.04868       -2.19684        0.64344
H         14.62838       -6.34382        0.02021
H         14.67086       -4.33525        2.37730
H         15.05134       -8.09218        2.72127
H         15.10794       -6.99948        4.09909
H         15.71830       -9.47973        4.51303
H         16.75490       -8.24670        5.22003
H         18.12725      -10.01597        4.24674
H         16.41912       -9.66760        1.75161
H         19.51546       -8.61571        2.66171
H         19.13635       -7.85014        4.21429
H         19.87338       -4.97997       -0.48841
H         23.32366       -6.45280        2.80664
H         20.95401       -6.70023        3.34898
H         22.77427       -5.31794       -3.46841
H         21.15036       -5.45629       -2.81536
H         23.46872       -7.36482       -2.19117
H         22.13799       -7.65008       -3.31447
H         21.80620       -7.52514       -1.58719
H         22.39443       -2.65975       -0.68372
H         21.15883       -3.17357       -1.81494
H         24.00593       -2.30455       -2.45995
H         22.49459       -1.54589       -2.92447
H         22.95464       -3.08022       -3.66690
H         25.06287       -4.37071       -2.83486
H         27.60512       -5.48468        0.48604
H         25.61268       -5.96063        1.86093
H         28.54807       -5.20551       -1.85962
H         26.83025       -3.00547       -3.19949
H         29.21940       -2.35488       -3.68285
H         33.49119       -4.20085       -5.85448
H         32.41220       -9.62969       -6.50786
H         36.20325       -7.85360       -7.36301
H         35.36202       -5.63018       -6.67241
H         30.56561       -8.25576       -5.66659
