104

C         -5.91954       -0.00978        7.16306
C         -5.96465       -0.75189        8.34702
C         -5.56411       -2.08886        8.36559
C         -5.06968       -2.69519        7.21054
C         -4.95535       -1.94177        6.04579
C         -5.42708       -0.60010        6.00221
C         -5.30591       -0.08427        4.59132
C         -5.44955        1.19886        4.17694
C         -5.82896        2.26337        5.04294
N         -6.15115        3.13992        5.73219
C         -5.20241        1.60407        2.83338
N         -5.01776        1.92602        1.73413
C         -4.92328       -1.28056        3.76323
C         -4.36996       -2.28140        4.71394
C         -3.34505       -3.14384        4.50183
C         -2.59743       -3.14084        3.28701
N         -1.97059       -3.13213        2.30929
C         -2.89307       -4.06771        5.48648
N         -2.54372       -4.84295        6.27657
C         -5.34675       -1.47786        2.49387
C         -5.32420       -2.68104        1.71654
C         -5.19293       -2.76354        0.32292
C         -5.30952       -4.09168       -0.13694
C         -5.47000       -4.97031        0.90886
S         -5.66906       -4.25568        2.38986
C         -5.54650       -6.28170        0.39967
C         -5.47821       -6.22922       -0.97344
C         -5.35429       -4.83400       -1.39787
C         -5.38674       -4.34314       -2.65233
C         -5.56217       -5.19106       -3.78032
N         -5.73055       -5.88657       -4.69401
C         -5.32283       -2.94697       -2.91058
N         -5.28382       -1.80621       -3.11900
C         -5.59076       -7.51334       -1.54450
C         -5.76068       -8.49091       -0.56122
S         -5.71292       -7.80433        1.03615
C         -5.99590       -9.90414       -0.75859
C         -6.70715      -10.77133        0.07419
C         -6.81393      -12.05521       -0.49892
C         -6.15433      -12.12595       -1.70522
S         -5.41741      -10.71801       -2.18265
C         -6.32620      -13.41613       -2.24430
C         -7.10127      -14.16033       -1.38321
C         -7.44673      -13.34406       -0.21791
C         -8.18506      -13.69178        0.85486
C         -8.74623      -14.99040        0.98572
N         -9.20339      -16.05255        1.08954
C         -8.44482      -12.77677        1.91222
N         -8.65694      -12.02662        2.77161
C         -7.34411      -15.45284       -1.89382
C         -6.73398      -15.62675       -3.13844
S         -5.85832      -14.20622       -3.62653
C         -6.79332      -16.78684       -3.99913
C         -5.82321      -17.23979       -4.89601
C         -6.25995      -18.39813       -5.57294
C         -7.53002      -18.76433       -5.18493
S         -8.20800      -17.79926       -4.01872
C         -7.89594      -19.94468       -5.86464
C         -6.83800      -20.34593       -6.64494
C         -5.76565      -19.35421       -6.56205
C         -4.62813      -19.29884       -7.28436
C         -4.30500      -20.30270       -8.23659
N         -4.06884      -21.14642       -8.99943
C         -3.72172      -18.21036       -7.16555
N         -2.99191      -17.31350       -7.07308
C         -7.08028      -21.60426       -7.22666
C         -8.37561      -22.06565       -6.96058
S         -9.22971      -20.93105       -5.93579
C         -9.03567      -23.28917       -7.31944
C         -8.81893      -23.99609       -8.45168
C         -9.15798      -25.44883       -8.64861
C        -10.22703      -26.13325       -8.16916
C        -11.24721      -25.51533       -7.39036
N        -12.06933      -25.02187       -6.73800
C        -10.44155      -27.52437       -8.41098
N        -10.62679      -28.65076       -8.59147
C         -8.05337      -25.99101       -9.52886
C         -7.20687      -24.91604       -9.92067
C         -6.01130      -25.14943      -10.58984
C         -5.71310      -26.44691      -10.99856
C         -6.59124      -27.49545      -10.71575
C         -7.74838      -27.27842       -9.95851
C         -7.86002      -23.63967       -9.52498
C         -7.78220      -22.47271      -10.20892
C         -6.77638      -22.21267      -11.18128
N         -5.93288      -21.97765      -11.94441
C         -8.73461      -21.42629      -10.02693
N         -9.51289      -20.57204       -9.90528
H         -6.28164        1.01004        7.20790
H         -6.33135       -0.28711        9.26084
H         -5.63381       -2.66012        9.28954
H         -4.79260       -3.74280        7.26283
H         -5.83271       -0.66665        1.95882
H         -5.04025       -1.88496       -0.29492
H         -5.59850       -7.74147       -2.60352
H         -7.15100      -10.45111        1.00916
H         -7.93394      -16.22770       -1.41839
H         -4.86567      -16.74776       -5.02175
H         -6.35867      -22.17003       -7.79972
H         -9.67730      -23.68340       -6.53559
H         -5.29955      -24.36011      -10.81200
H         -4.79840      -26.64024      -11.55563
H         -6.36250      -28.49715      -11.07608
H         -8.36474      -28.14314       -9.74496
