146

C          0.02915       -3.11417       -0.73171
C          0.90720       -2.68284        0.25538
C          0.88927       -1.27601        0.35152
C          0.01255       -0.71822       -0.55228
S         -0.79475       -1.80763       -1.51520
C          0.04174        0.68274       -0.40535
C          0.93363        1.01838        0.58762
C          1.52428       -0.20944        1.12811
C          2.43829       -0.33567        2.11024
C          2.96884        0.79960        2.78292
N          3.39438        1.73053        3.32195
C          2.91834       -1.60692        2.52650
N          3.31070       -2.64398        2.87461
C          0.99971        2.42118        0.77363
C          0.13601        3.09520       -0.09888
S         -0.72047        1.96244       -1.12069
C         -0.07845        4.53014       -0.21610
C          0.53170        5.54589        0.48751
C          0.15261        6.89512        0.07459
C          0.62686        8.17723        0.48276
C          1.78831        8.28197        1.44964
C          2.86929        7.43333        1.68002
C          3.81167        7.91931        2.64516
C          3.45587        9.14585        3.14997
S          1.91977        9.59638        2.57960
C          4.19622       10.05162        4.08014
Cl         5.23212        7.05325        3.05005
C          0.01633        9.34446       -0.06094
C         -1.10071        9.29074       -0.91608
C         -1.54215        8.00855       -1.36818
C         -0.88425        6.83967       -0.87886
S         -1.20086        5.19554       -1.29911
C         -2.68467        7.89229       -2.35857
C         -2.95140        6.96449       -3.36655
C         -4.15115        7.21918       -4.10907
C         -4.79189        8.35719       -3.68525
S         -4.01594        8.99879       -2.31890
C         -6.03822        9.00794       -4.18656
Cl        -4.68200        6.19092       -5.37045
C         -1.59821       10.64373       -1.14312
C         -0.86289       11.64837       -0.56519
S          0.52752       10.99400        0.11348
C         -1.12183       13.06571       -0.56963
C         -1.78626       13.77863       -1.52970
C         -1.97834       15.19381       -1.24994
C         -2.73049       16.20278       -1.92664
C         -3.60783       15.84614       -3.11400
C         -4.79689       16.39934       -3.59239
C         -5.25273       15.84621       -4.83602
C         -4.38565       14.90405       -5.32674
S         -3.18543       14.55778       -4.18990
C         -4.35153       14.21823       -6.64948
Cl        -6.67857       16.38522       -5.61367
C         -2.63192       17.55445       -1.48103
C         -1.76255       17.94548       -0.43827
C         -1.08749       16.92241        0.30994
C         -1.24493       15.55654       -0.10033
S         -0.63464       14.10751        0.65348
C         -0.23443       17.30520        1.51796
C          0.49891       18.45671        1.81389
C          1.14461       18.45345        3.09788
C          0.87490       17.31202        3.80956
S         -0.08804       16.25455        2.89499
C          1.24978       16.92383        5.20256
Cl         2.09781       19.77018        3.64176
C         -1.72524       19.40384       -0.35955
C         -2.59856       20.06770       -1.19588
S         -3.49907       18.94019       -2.07727
C         -2.79326       21.49758       -1.36395
C         -3.94904       22.16920       -1.71024
C         -3.83832       23.61991       -1.79859
C         -4.80418       24.63963       -2.10351
C         -6.26512       24.26664       -2.31556
C         -7.04590       23.23655       -1.78887
C         -8.41097       23.22799       -2.24569
C         -8.68065       24.25716       -3.11429
S         -7.27943       25.16391       -3.40296
C         -9.94880       24.65067       -3.80221
Cl        -9.54398       22.05333       -1.72826
C         -4.36805       26.00112       -2.19384
C         -3.02801       26.37316       -1.98214
C         -2.07911       25.35470       -1.66974
C         -2.49962       24.00117       -1.57110
S         -1.52351       22.60443       -1.19730
C         -0.63045       25.70821       -1.46371
C          0.30633       25.21144       -0.56152
C          1.60892       25.78538       -0.69137
C          1.65279       26.76093       -1.65849
S          0.17501       26.82763       -2.51345
C          2.78215       27.64920       -2.06779
Cl         2.92631       25.27690        0.27825
C         -2.88028       27.81592       -2.11995
C         -4.01854       28.50055       -2.47430
S         -5.30865       27.43066       -2.53789
C         -4.18277       29.91537       -2.71979
C         -5.11405       30.54585       -3.55312
C         -4.96516       31.95121       -3.51491
C         -3.94386       32.32367       -2.66889
S         -3.15979       31.07122       -1.91777
C         -3.84200       33.73086       -2.66751
C         -4.79957       34.24981       -3.51192
C         -5.57458       33.15677       -4.10261
C         -6.59666       33.22869       -4.97495
C         -7.07207       34.47442       -5.44914
N         -7.47073       35.50820       -5.84877
C         -7.24429       32.06638       -5.46638
N         -7.77226       31.11868       -5.86767
C         -4.74976       35.65946       -3.55268
C         -3.74107       36.13343       -2.72147
S         -2.88284       34.86261       -1.91601
H         -0.17549       -4.13131       -1.03799
H          1.50076       -3.37187        0.84269
H          1.62791        2.93136        1.49344
H          1.25011        5.33540        1.26833
H          3.02758        6.49933        1.16062
H          4.71509        9.48997        4.86327
H          3.52940       10.76479        4.57788
H          4.94144       10.62951        3.52154
H         -2.32525        6.11237       -3.59382
H         -6.20563        8.80110       -5.24813
H         -5.99810       10.09843       -4.07439
H         -6.90218        8.64209       -3.62258
H         -2.49473       10.89487       -1.68891
H         -2.12125       13.25029       -2.40495
H         -5.33273       17.20693       -3.11300
H         -5.32609       13.79600       -6.90493
H         -3.61541       13.40531       -6.67650
H         -4.06400       14.93841       -7.42383
H          0.59968       19.30824        1.15883
H          2.06937       17.53083        5.59781
H          1.56192       15.87454        5.25429
H          0.38665       17.05181        5.86638
H         -1.07984       19.96535        0.29704
H         -4.86229       21.62521       -1.89982
H         -6.68318       22.50038       -1.08421
H        -10.64524       23.81160       -3.88783
H         -9.75549       25.01347       -4.81958
H        -10.44838       25.45445       -3.24956
H          0.09275       24.44423        0.17090
H          3.56826       27.69078       -1.30623
H          2.44062       28.67812       -2.22993
H          3.23126       27.28438       -2.99671
H         -1.95040       28.34523       -1.98582
H         -5.83869       29.99683       -4.14540
H         -5.38156       36.32389       -4.12909
H         -3.45879       37.16229       -2.54059
