85

C         -0.34526       10.61359       -2.93776
N         -1.50993       11.20042       -2.92075
C         -1.99259       10.86031       -1.69970
C         -1.04382       10.03794       -0.98744
C         -1.61799        9.68896        0.33796
O         -1.13456        9.02296        1.22614
C         -2.93962       10.36559        0.29961
C         -3.07974       11.04715       -0.96157
N         -4.28260       11.67256       -1.02719
C         -4.82120       11.37876        0.12301
C         -4.02462       10.53816        1.04395
C          0.04053        9.83717       -1.72707
C          1.24282        9.10250       -1.50061
C          2.24325        9.03460       -2.39330
C          3.44019        8.31712       -2.13088
C          3.66922        7.19977       -1.32534
C          5.03824        6.87010       -1.28829
C          5.78196        7.72267       -2.06938
S          4.91010        8.86545       -2.89236
C          7.14607        7.42904       -1.89218
C          7.27015        6.39427       -0.99464
C          5.93223        5.93012       -0.61444
C          5.59094        4.86565        0.14063
C          4.23133        4.52490        0.38206
N          3.11615        4.25179        0.57404
C          6.57710        4.00852        0.70038
N          7.38286        3.30837        1.15396
C          8.62684        6.16175       -0.67164
C          9.47385        7.05146       -1.34800
S          8.57182        8.07225       -2.43195
C         10.91496        7.19065       -1.21858
C         11.70912        8.31938       -1.38512
O         11.16686        9.52088       -1.72474
C         12.10408       10.57758       -1.89566
C         13.08519        8.05363       -1.12585
C         13.32852        6.74488       -0.76609
S         11.88496        5.83280       -0.78361
C         14.60411        6.17892       -0.39616
C         15.05820        4.86924       -0.56488
C         16.38281        4.72583       -0.09072
C         16.85926        5.90761        0.42749
S         15.80506        7.18165        0.36786
C         18.18147        5.72026        0.86956
C         18.55528        4.41819        0.62881
C         17.42851        3.70381        0.01503
C         17.36295        2.41129       -0.35901
C         16.18662        1.86035       -0.93872
N         15.22570        1.41388       -1.41135
C         18.46337        1.52923       -0.18516
N         19.36637        0.81338       -0.03701
C         19.89557        4.19319        1.01991
C         20.47269        5.35721        1.53689
S         19.34420        6.67692        1.56156
C         21.82216        5.59972        2.00805
N         22.40041        6.77875        1.89245
C         23.64221        6.58530        2.40420
C         23.79177        5.22479        2.84371
C         25.14254        5.04739        3.42937
O         25.64569        4.06187        3.91892
C         25.73199        6.39561        3.26391
C         24.76401        7.26069        2.63795
N         25.28883        8.50427        2.48588
C         26.48749        8.37735        2.98657
C         26.85926        7.04740        3.51491
C         22.67968        4.53371        2.62941
C         22.35105        3.18889        2.97325
C         23.04766        2.12951        2.54502
H          0.34284       10.66816       -3.79235
H         -5.81960       11.71809        0.43696
H         -4.28393       10.18539        2.02152
H          1.31995        8.60080       -0.53599
H          2.18904        9.56679       -3.33906
H          2.87449        6.70491       -0.78072
H          8.98994        5.44170        0.05204
H         11.56251       11.46173       -2.24358
H         12.85355       10.32911       -2.65578
H         12.58266       10.83006       -0.94300
H         13.87243        8.79433       -1.18338
H         14.45162        4.09850       -1.02548
H         20.44441        3.26645        0.90553
H         27.22431        9.19338        3.03650
H         27.77777        6.73215        3.96716
H         21.49283        3.04009        3.62466
H         23.90818        2.22647        1.88829
H         22.77145        1.12421        2.84853
