104

C          2.44249       -3.11143        5.11768
O          2.25201       -3.18928        3.91007
N          2.54559       -1.83886        5.70273
C          2.76774       -0.66647        5.01056
N          2.86579        0.37758        5.80291
C          2.63638       -0.10134        7.05939
C          2.41069       -1.45753        7.02549
N          2.63769       -4.27731        5.87562
C          3.51014       -4.38268        6.95128
C          3.50096       -5.69308        7.34183
N          2.67814       -6.41812        6.53852
C          2.17034       -5.57907        5.64904
C          1.23493       -6.04960        4.65723
S         -0.09204       -5.12607        4.07622
C         -0.56474       -6.31045        2.90554
C          0.15222       -7.45985        3.10230
C          1.13401       -7.28112        4.08249
C          1.87525       -8.49448        4.20056
C          1.46165       -9.49767        3.30460
C          2.04770      -10.80908        3.07553
O          1.88913      -11.50995        2.08232
O          2.84109      -11.15413        4.13128
C          3.52814      -12.39174        3.94714
S          0.06802       -9.08558        2.32234
C         -1.53807       -6.01577        1.88664
C         -2.53674       -5.07445        1.96882
C         -3.09773       -4.69296        0.69692
C         -3.89907       -3.58515        0.31499
C         -4.26144       -2.53084        1.31571
C         -5.43420       -1.79651        1.46526
C         -5.44517       -0.95289        2.61667
C         -4.30763       -1.10482        3.37360
S         -3.12406       -1.96764        2.49460
C         -4.01852       -0.62250        4.75574
Cl        -6.78698        0.03222        3.01298
C         -4.32902       -3.46815       -1.02480
C         -4.10176       -4.48651       -1.96503
C         -3.31286       -5.60227       -1.57376
C         -2.75172       -5.63946       -0.27740
S         -1.54228       -6.71481        0.34238
C         -3.04047       -6.72669       -2.52006
C         -3.00775       -8.09598       -2.27666
C         -2.69001       -8.88027       -3.42634
C         -2.53100       -8.10887       -4.55431
S         -2.61565       -6.44438       -4.16882
C         -2.28096       -8.52771       -5.96645
Cl        -2.55112      -10.58565       -3.35071
C         -4.76703       -4.16548       -3.20785
C         -5.29705       -2.89720       -3.26426
S         -5.12063       -2.12614       -1.76785
C         -5.93829       -2.24128       -4.37875
C         -6.49997       -0.96198       -4.40096
C         -7.12320       -0.70241       -5.63348
C         -6.96145       -1.74951       -6.50751
S         -6.10512       -3.03646       -5.91636
C         -7.66601       -1.46576       -7.68861
C         -8.31088       -0.25813       -7.55194
C         -7.94401        0.33109       -6.25881
C         -8.24221        1.54992       -5.76545
C         -7.74963        1.98948       -4.49847
N         -7.33461        2.34626       -3.47386
C         -9.03907        2.46670       -6.49081
N         -9.70427        3.22014       -7.08416
C         -9.13151       -0.00460       -8.67407
C         -9.04681       -1.04167       -9.61872
S         -7.86107       -2.21273       -9.15064
C         -9.73150       -1.07763      -10.89323
N        -10.04120        0.06730      -11.48028
C        -10.54840       -0.24323      -12.69661
C        -10.60277       -1.60063      -12.85478
N        -10.06517       -2.17195      -11.71537
C         -9.91356       -3.54672      -11.42152
O         -9.95451       -3.91104      -10.25198
N         -9.64766       -4.53166      -12.39502
C         -9.86511       -4.56467      -13.75285
N         -9.39016       -5.64553      -14.33027
C         -8.85469       -6.38606      -13.32264
C         -9.02635       -5.74707      -12.12094
H          2.88107       -0.64983        3.93321
H          2.62841        0.55733        7.92091
H          2.14844       -2.14815        7.81459
H          4.10448       -3.54931        7.30047
H          4.06805       -6.15392        8.14094
H          2.71179       -8.63085        4.87765
H          4.05324      -12.62968        4.87565
H          4.26670      -12.28740        3.14637
H          2.83090      -13.20709        3.72653
H         -2.74000       -4.56173        2.89770
H         -6.28611       -1.87577        0.80253
H         -4.51963        0.32656        4.96773
H         -2.94760       -0.48302        4.93243
H         -4.38339       -1.36076        5.48109
H         -3.18846       -8.53588       -1.30314
H         -1.89306       -9.54959       -6.02594
H         -1.54935       -7.87351       -6.45169
H         -3.21069       -8.49079       -6.54596
H         -4.79900       -4.82952       -4.06052
H         -6.48845       -0.29960       -3.54424
H         -9.77125        0.85990       -8.82153
H        -10.87797        0.52109      -13.38955
H        -11.04661       -2.15636      -13.65903
H        -10.40624       -3.82130      -14.30792
H         -8.37353       -7.33658      -13.51715
H         -8.72055       -6.01002      -11.11599
