82

C         -3.31968       -0.77820       -1.06012
C         -2.41470       -1.36948       -0.26791
C         -1.56775       -0.53157        0.59373
C         -0.64715       -1.06814        1.43744
C          0.17578       -0.25810        2.27369
N          0.83956        0.42033        2.94225
C         -0.44522       -2.47898        1.53492
N         -0.29257       -3.62563        1.59425
C         -1.77137        0.92527        0.48665
C         -2.71436        1.40974       -0.34536
O         -3.51568        0.58462       -1.13078
C         -2.93570        2.81480       -0.49669
C         -2.02710        3.87439       -0.37534
C         -2.63592        5.11980       -0.63302
C         -3.97592        4.98177       -0.91261
S         -4.53186        3.41883       -0.89480
C         -4.52663        6.26039       -1.14792
C         -3.53157        7.20449       -1.02022
C         -2.26728        6.53268       -0.72202
C         -1.04066        7.07928       -0.61828
C         -0.81946        8.46219       -0.86269
N         -0.63536        9.58524       -1.09077
C          0.10389        6.29367       -0.31208
N          1.03305        5.64622       -0.05896
C         -4.03133        8.51604       -1.17048
C         -5.39978        8.50451       -1.43852
S         -6.02400        6.87574       -1.51898
C         -6.29401        9.59607       -1.64083
C         -6.97248       10.17586       -0.63805
C         -7.99537       11.18319       -0.81649
C         -8.74315       11.38815        0.27970
C         -8.35331       10.56062        1.40678
S         -6.82102        9.75714        1.04779
C         -9.06736       10.31400        2.52062
C        -10.39990       10.78478        2.84743
C        -10.97859       10.10120        3.85008
C        -10.14352        9.04035        4.38184
S         -8.51997        9.21547        3.77177
C        -10.57682        8.06235        5.19695
C         -9.78217        6.95871        5.65116
C         -8.72734        6.28225        5.02971
C         -8.23430        5.23072        5.81367
C         -8.90799        5.12696        7.00680
S        -10.12897        6.23693        7.20973
C         -8.33258        4.07372        7.75032
C         -7.29005        3.53622        7.02765
C         -7.17284        4.23428        5.75003
C         -6.30024        4.01155        4.74687
C         -5.24204        3.07159        4.87765
N         -4.36432        2.32159        4.99694
C         -6.38149        4.69869        3.50575
N         -6.45253        5.23287        2.47497
C         -6.68106        2.46384        7.70603
C         -7.31216        2.19972        8.92719
S         -8.60752        3.34510        9.21480
C         -7.04879        1.16362        9.87585
C         -6.56495       -0.03427        9.49093
C         -6.31164       -1.07804       10.49934
C         -5.81637       -2.29616       10.16130
C         -5.57089       -3.30434       11.13630
N         -5.37889       -4.11642       11.94306
C         -5.51271       -2.64561        8.81174
N         -5.27976       -2.90613        7.70752
C         -6.63088       -0.72572       11.89062
C         -7.10608        0.49845       12.15795
O         -7.32606        1.46984       11.20463
H         -3.99064       -1.30224       -1.72721
H         -2.32872       -2.45166       -0.27875
H         -1.16860        1.60168        1.08506
H         -0.98229        3.71556       -0.13735
H         -3.47066        9.43736       -1.07126
H         -6.47310        9.89999       -2.66746
H         -8.16730       11.67754       -1.76232
H         -9.58019       12.07068        0.31292
H        -10.89817       11.57450        2.30382
H        -11.98430       10.28388        4.20389
H        -11.61792        8.07447        5.51365
H         -8.33792        6.55519        4.05909
H         -5.84227        1.87985        7.34712
H         -6.37627       -0.23920        8.44137
H         -6.49390       -1.42859       12.70660
H         -7.36897        0.85696       13.14392
