118

C          7.57530        1.60491        1.40962
C          8.01420        2.24584        0.22127
C          8.81929        3.49675        0.30359
O          8.72181        4.38586       -0.52185
O          9.65137        3.57682        1.35939
C          7.63310        1.74421       -1.04766
C          8.11586        2.28725       -2.28827
N          8.49670        2.62609       -3.33020
C          6.79495        0.62653       -1.12876
C          6.39403        0.02237        0.05033
C          6.77720        0.46641        1.32392
C          6.22370       -0.49685        2.32711
C          6.03808       -0.27880        3.65199
C          6.44482        0.92846        4.28888
N          6.80551        1.91513        4.77906
C          5.38590       -1.22720        4.49276
N          4.87499       -2.01417        5.17443
C          5.77071       -1.67957        1.54957
C          5.59274       -1.20352        0.14171
O          4.91439       -1.66164       -0.74966
C          5.76517       -2.97938        1.89436
C          5.52920       -4.04718        0.97854
C          6.44373       -4.76939        0.23942
C          5.87608       -5.88553       -0.48853
C          4.48980       -5.92857       -0.32320
S          3.96113       -4.67605        0.75398
C          3.72497       -6.90897       -0.98052
S          1.95335       -6.98057       -0.74978
C          1.90748       -8.04659        0.71510
C          4.31040       -7.84055       -1.86711
C          5.70149       -7.82533       -1.99801
C          6.47257       -6.88594       -1.28977
S          8.25803       -6.90687       -1.40321
C          8.61883       -7.96837        0.02376
S          6.22769       -9.06165       -3.09438
C          4.63501       -9.50862       -3.52681
C          3.72493       -8.84472       -2.72888
C          4.39257      -10.43154       -4.59319
C          4.33199      -11.74692       -4.31211
C          4.05014      -12.71944       -5.33673
C          3.74421      -12.34933       -6.72443
C          3.76111      -11.09898       -7.18303
S          4.15318       -9.72392       -6.18604
C          3.45782      -13.55188       -7.40673
C          3.59417      -14.61275       -6.54377
C          3.28508      -15.85328       -7.12191
C          2.92461      -15.67206       -8.45001
S          2.97211      -14.00407       -8.93960
C          3.97487      -14.07835       -5.26115
C          4.16174      -14.84944       -4.06518
C          5.07379      -15.82440       -3.92219
C          5.23320      -16.51635       -2.68621
C          6.37994      -17.08456       -2.16821
C          6.22185      -17.64153       -0.84250
C          4.89502      -17.52827       -0.41886
S          3.92374      -16.77881       -1.62005
C          4.49721      -18.01175        0.83420
S          2.83256      -17.74013        1.43901
C          2.02566      -19.25604        0.86701
C          5.41591      -18.62674        1.70249
C          6.75730      -18.66103        1.32569
C          7.14764      -18.22978        0.04892
S          8.83433      -18.43509       -0.51196
C          8.97209      -20.24729       -0.42079
S          7.73095      -19.24685        2.62975
C          6.38935      -19.75274        3.54622
C          5.22455      -19.33035        2.93996
C          6.60140      -20.53637        4.71424
C          5.75095      -20.55977        5.74853
C          5.74381      -21.77651        6.62374
O          6.64479      -22.55498        6.84694
C          4.33377      -21.92131        7.04673
C          3.57597      -20.83038        6.59423
C          2.19303      -20.89599        6.66634
C          1.57606      -22.02150        7.26725
C          2.37357      -23.06965        7.78438
C          3.77114      -23.02465        7.66298
C          1.80293      -24.21220        8.42307
N          1.28167      -25.06345        9.01107
C          0.08660      -22.04807        7.18316
O         -0.47781      -21.50767        6.24337
O         -0.59814      -22.63334        8.17780
C          4.51704      -19.82843        6.03592
C          4.36595      -18.48192        6.03698
C          5.44796      -17.59710        5.74373
N          6.33052      -16.87337        5.53546
C          3.14917      -17.86010        6.43389
N          2.14693      -17.38779        6.76438
H          7.85822        2.02089        2.37056
H          9.76324        2.79655        1.92897
H          6.48805        0.20770       -2.08629
H          6.04701       -3.29595        2.89385
H          7.50138       -4.53233        0.22692
H          0.86702       -8.20327        1.01206
H          2.43956       -7.58373        1.55059
H          2.35620       -9.01960        0.49655
H          8.22299       -7.52797        0.94334
H          9.70259       -8.06949        0.13051
H          8.18985       -8.96486       -0.11285
H          2.65665       -9.01009       -2.81674
H          4.48046      -12.10700       -3.29820
H          3.53325      -10.89183       -8.22363
H          3.30120      -16.81453       -6.62425
H          2.62409      -16.42713       -9.16389
H          3.51903      -14.54837       -3.24095
H          5.75637      -16.06216       -4.73558
H          7.32949      -17.05245       -2.69188
H          2.45652      -20.12783        1.36566
H          2.11651      -19.36984       -0.21577
H          0.96305      -19.20476        1.12261
H          9.83440      -20.57460       -1.00563
H          8.07388      -20.72975       -0.81637
H          9.13324      -20.58095        0.60667
H          4.23621      -19.54011        3.32750
H          7.42680      -21.24870        4.68719
H          1.56819      -20.11887        6.22620
H          4.40511      -23.84285        8.00052
H         -0.15515      -23.04577        8.94226
