74

C         -1.09070       -0.81430        0.33946
C         -0.38803        0.39198        0.47249
F         -1.00596        1.53702        0.15306
C          0.93895        0.42528        0.91471
F          1.58632        1.59289        1.01710
C          1.60460       -0.74511        1.22997
C          0.89247       -1.92526        1.08753
C         -0.44495       -1.99860        0.66611
C         -0.83966       -3.43867        0.63639
C         -2.10541       -3.92067        0.67942
C         -3.24796       -3.06915        0.69257
N         -4.17170       -2.36867        0.70395
C         -2.39800       -5.31280        0.78189
N         -2.63377       -6.44738        0.84422
C          0.42259       -4.21903        0.75171
C          1.44509       -3.26106        1.29681
O          2.50496       -3.44897        1.85069
C          0.67890       -5.43988        0.25082
C          1.94073       -6.08587        0.23787
N          2.17698       -6.96288       -0.79607
C          3.38691       -7.57815       -0.62860
C          3.99508       -7.03538        0.47286
C          3.06709       -6.12567        1.03977
C          3.79765       -8.65722       -1.44647
C          3.94931       -9.64970       -2.09757
C          3.97514      -10.89957       -2.81394
S          2.26222      -11.34851       -3.33286
C          2.74041      -12.56493       -2.19024
C          3.96633      -12.09989       -1.91490
C          4.95393      -12.66515       -0.99133
O          4.87347      -13.69192       -0.33391
O          6.00915      -11.81275       -1.00719
C          7.09956      -12.12355       -0.13483
C          8.31220      -12.21166       -0.99194
N          8.38907      -13.12236       -2.01605
C          9.61106      -13.03994       -2.62916
C         10.32806      -12.04299       -2.01073
C          9.50772      -11.51774       -0.97583
C          9.95393      -13.87253       -3.72326
C         10.04803      -14.62405       -4.65391
C         10.04870      -15.53875       -5.73750
C          9.40131      -15.34615       -6.89324
C          9.75403      -16.25867       -8.02813
O         10.26963      -17.35443       -7.97643
C          9.41637      -15.51224       -9.24995
C          8.80901      -14.28295       -8.92155
C          8.54923      -13.37783       -9.94161
C          8.84701      -13.74913      -11.25688
C          9.40820      -14.99569      -11.55573
C          9.71387      -15.89825      -10.54709
F          9.67699      -15.31907      -12.82720
F          8.59012      -12.88148      -12.24489
C          8.57882      -14.25804       -7.44538
C          7.60055      -13.55058       -6.82633
C          7.17983      -13.79894       -5.48815
N          6.75916      -13.98505       -4.41832
C          6.80166      -12.58706       -7.50924
N          6.15094      -11.80552       -8.06671
H         -2.10743       -0.76676       -0.03316
H          2.64072       -0.74160        1.55057
H         -0.11551       -5.98046       -0.25905
H          1.53702       -7.18509       -1.54614
H          4.96243       -7.30377        0.87739
H          3.21839       -5.58875        1.96599
H          4.69401      -10.92891       -3.63942
H          2.20658      -13.43504       -1.80210
H          6.96453      -13.05386        0.42689
H          7.19657      -11.30298        0.58324
H          7.64219      -13.74101       -2.31503
H         11.32910      -11.72141       -2.26771
H          9.76695      -10.72097       -0.28975
H         10.67675      -16.42081       -5.61332
H          8.13747      -12.38874       -9.77708
H         10.18053      -16.85151      -10.76881
