100

C         -7.09838        2.29862        5.04453
C         -8.15537        2.08074        5.93752
C         -8.51945        0.78491        6.32359
C         -7.79469       -0.31770        5.87601
C         -6.70249       -0.09830        5.04935
C         -6.37926        1.20726        4.57364
C         -5.27763        1.08294        3.54741
C         -4.51548        2.06747        3.01692
C         -4.68504        3.44174        3.35193
N         -4.82099        4.56307        3.61899
C         -3.44826        1.78847        2.11399
N         -2.59271        1.56197        1.36410
C         -5.14159       -0.38724        3.31176
C         -5.67449       -1.03657        4.52474
C         -5.06876       -1.98442        5.27949
C         -3.71196       -2.35857        5.04545
N         -2.58131       -2.59687        4.92655
C         -5.65597       -2.50300        6.46820
N         -6.16100       -2.93424        7.41999
C         -4.99154       -0.98163        2.10647
C         -5.28547       -2.36235        1.86302
S         -4.03084       -3.52665        1.93301
C         -5.08729       -4.84265        1.65447
C         -6.35334       -4.39641        1.31758
C         -6.46838       -2.95625        1.43323
C         -7.74402       -2.24001        1.06681
C         -8.94664       -3.18530        0.93610
C         -8.59328       -4.45284        0.15682
C         -7.51359       -5.25487        0.88519
C         -4.61251       -6.20124        1.74307
N         -3.29310       -6.52925        1.50435
C         -3.15705       -7.87980        1.63376
C         -2.20515       -8.91798        1.53618
C         -2.91110      -10.07214        1.82588
N         -4.22339       -9.75600        2.09784
C         -4.35892       -8.40274        1.97070
C         -5.30772       -7.35932        2.06710
C         -2.55297      -11.43443        1.88139
C         -1.31329      -11.80917        2.23002
C         -0.95776      -13.18523        2.28759
S          0.65303      -13.63762        1.94733
C          0.31131      -15.32220        1.97576
C         -0.98686      -15.52848        2.43756
C         -1.70045      -14.29495        2.65224
C         -3.09580      -14.27806        3.21212
C         -3.39177      -15.54118        4.01302
C         -3.08893      -16.77757        3.16710
C         -1.60884      -16.86545        2.76651
C          1.31460      -16.32008        1.74762
C          2.42295      -16.25109        0.98054
C          3.58498      -17.16464        1.19288
C          3.56086      -18.51437        1.30185
C          2.34377      -19.25176        1.24164
N          1.34317      -19.84053        1.21124
C          4.74280      -19.29323        1.41520
N          5.70646      -19.93480        1.51625
C          4.78876      -16.27429        1.11104
C          4.39712      -15.03783        0.52232
C          5.29721      -13.98412        0.42476
C          6.60233      -14.17072        0.88513
C          6.99233      -15.38787        1.45618
C          6.08405      -16.44244        1.58530
C          2.94741      -15.12468        0.17340
C          2.32030      -14.48771       -0.84404
C          2.95553      -13.47649       -1.62242
N          3.47419      -12.65480       -2.25087
C          1.01307      -14.86996       -1.26799
N         -0.03326      -15.20018       -1.64575
H         -6.88945        3.32132        4.75138
H         -8.71652        2.92980        6.32526
H         -9.36954        0.63736        6.98728
H         -8.09896       -1.31394        6.18231
H         -4.77402       -0.40001        1.21473
H         -7.58646       -1.73377        0.10570
H         -7.97669       -1.46876        1.80900
H         -9.77169       -2.66304        0.43832
H         -9.30396       -3.46736        1.93460
H         -8.24630       -4.18431       -0.84906
H         -9.48568       -5.07741        0.03053
H         -7.17369       -6.06165        0.22528
H         -7.95461       -5.71831        1.77644
H         -2.53607       -5.90294        1.26290
H         -1.15907       -8.84698        1.27400
H         -4.97966      -10.37690        2.35789
H         -6.35098       -7.44723        2.33229
H         -3.31125      -12.16693        1.62528
H         -0.54983      -11.06883        2.45549
H         -3.81213      -14.19948        2.38516
H         -3.23684      -13.40718        3.86285
H         -4.44378      -15.53791        4.31890
H         -2.78588      -15.55507        4.92767
H         -3.71078      -16.75014        2.26303
H         -3.37257      -17.68086        3.71828
H         -1.51128      -17.54406        1.91102
H         -1.04785      -17.30552        3.60023
H          1.17199      -17.19816        2.37297
H          5.01899      -13.01122        0.03247
H          7.31952      -13.35442        0.81732
H          8.00988      -15.50473        1.82565
H          6.41652      -17.34681        2.08333
