86

C          1.34142        0.51344        1.82013
F          2.51516        1.09559        1.53762
C          0.20347        1.28644        1.97425
F          0.27193        2.61761        1.84012
C         -1.00438        0.67573        2.26924
F         -2.10908        1.41954        2.42064
C         -1.07669       -0.71047        2.40669
F         -2.27047       -1.25875        2.68194
C          0.05910       -1.51995        2.25115
C          1.27144       -0.87033        1.96015
F          2.40612       -1.57330        1.81975
C         -0.02113       -2.98431        2.38766
C          0.77382       -3.85840        1.72261
C          0.40796       -5.21362        2.12368
C         -0.68043       -5.06519        3.06479
C         -0.93728       -3.76435        3.22758
F         -1.31819       -6.06960        3.68094
C          0.98778       -6.34479        1.70279
C          0.63212       -7.70122        2.09845
C          1.46160       -8.55047        1.45561
C          2.38189       -7.77369        0.63041
C          2.09421       -6.47771        0.77689
F          2.73676       -5.46773        0.17746
C          1.40276       -9.97676        1.60876
C          1.22133      -10.80957        0.57441
C          1.16022      -12.20954        0.77311
N          0.95506      -12.99265       -0.34215
C          0.95610      -14.29938        0.05400
C          0.84369      -15.61774       -0.44432
C          0.95962      -16.43081        0.67210
N          1.12168      -15.64922        1.79353
C          1.13061      -14.34302        1.39535
C          1.26497      -13.02671        1.88953
C          0.94926      -17.83129        0.85818
C          1.38271      -18.64920       -0.11101
C          1.41444      -20.08055        0.02818
C          2.32589      -20.86610       -0.59119
C          2.03643      -22.24952       -0.23557
C          0.84908      -22.21180        0.59406
C          0.47737      -20.93923        0.75197
F          0.22315      -23.27232        1.11869
C          2.74083      -23.32906       -0.59484
C          2.42612      -24.69841       -0.23331
C          3.36576      -25.50974       -0.76469
C          4.32968      -24.67128       -1.48271
C          3.94640      -23.39332       -1.38881
F          4.57724      -22.34571       -1.93362
C          3.38437      -26.94638       -0.63966
C          2.46102      -27.67183        0.01287
C          2.49258      -29.11500        0.12318
C          3.49576      -29.80597        0.70394
O          3.53082      -31.18768        0.80252
C          2.46523      -31.91276        0.34156
C          2.52871      -33.29516        0.50454
C          1.47121      -34.09527        0.07400
C          0.34855      -33.51239       -0.51690
C          0.28673      -32.12735       -0.68245
C          1.35113      -31.33234       -0.24797
C          1.31428      -29.87017       -0.40429
O          0.35257      -29.31862       -0.92539
C          4.69343      -29.17076        1.35522
H          1.55528       -3.62286        1.01698
H         -1.69420       -3.35482        3.87718
H         -0.16722       -7.97499        2.76965
H          3.16652       -8.19012        0.02054
H          1.50188      -10.34542        2.62619
H          1.10356      -10.40643       -0.42942
H          0.83060      -12.70063       -1.30303
H          0.69804      -15.93230       -1.46726
H          1.24881      -15.94365        2.75366
H          1.42412      -12.71908        2.91320
H          0.61458      -18.23387        1.81116
H          1.77108      -18.24818       -1.04499
H          3.13697      -20.53832       -1.22243
H         -0.37812      -20.59525        1.30849
H          1.56853      -24.99470        0.34796
H          5.19829      -25.03387       -2.00717
H          4.21565      -27.44897       -1.13073
H          1.59158      -27.20993        0.47559
H          3.40286      -33.74687        0.96649
H          1.52061      -35.17399        0.20306
H         -0.47802      -34.13686       -0.85099
H         -0.58616      -31.67299       -1.14492
H          4.52014      -28.13488        1.66179
H          5.54747      -29.19560        0.67148
H          4.96424      -29.71927        2.26379
