110

C         12.13619        6.44848        4.33961
C         11.95501        7.60440        5.08961
F         13.02351        8.32951        5.44401
C         10.68997        8.00968        5.49269
C          9.57461        7.25327        5.13168
C          9.72553        6.07610        4.38375
C         11.03422        5.66003        3.98992
C         11.22294        4.44454        3.30959
C         10.12738        3.62951        3.07589
C          8.84170        4.08246        3.42117
C          8.61420        5.29008        4.05616
C          7.82800        3.05405        3.12092
O          6.62667        3.15808        3.24622
C          8.59895        1.88173        2.61686
C         10.02437        2.19613        2.69486
C         10.96736        1.33400        3.13951
C         10.62865        0.33446        4.09881
N         10.34114       -0.38529        4.96188
C         12.32958        1.47525        2.76828
N         13.42301        1.58641        2.39735
C          8.01211        0.80714        2.07724
C          8.68973       -0.29500        1.39998
C          9.44701       -0.05345        0.28873
C          9.83923       -1.18435       -0.56528
C         10.11681       -1.07804       -1.89930
C         11.51326       -0.81653       -2.50108
C         11.69887       -1.51109       -3.88986
N         13.03197       -1.40040       -4.48706
C         11.84384        0.69848       -2.54666
N         13.17762        1.02135       -3.07522
C          9.19395       -2.05224       -2.48757
C          8.52800       -1.96470       -3.64866
C          7.36578       -2.89266       -3.96285
C          7.16319       -4.01549       -2.94745
C          7.81046       -4.06239       -1.76996
C          8.70031       -2.97582       -1.48182
C          9.05968       -2.42805       -0.31736
C          8.63879       -2.74091        1.01955
C          8.46330       -1.69153        1.84421
C          7.52162       -3.39988       -5.36201
C          8.16364       -4.52416       -5.70807
C          8.29500       -4.87852       -7.07065
C          8.37050       -4.05650       -8.19742
C          8.53667       -4.81510       -9.36584
C          8.56868       -6.15845       -9.08310
S          8.40733       -6.55911       -7.48541
C          8.77873       -6.86502      -10.27548
C          8.88269       -5.97463      -11.31857
C          8.71976       -4.61275      -10.80027
C          8.73509       -3.44350      -11.47027
C          8.92330       -3.40755      -12.87863
N          9.07832       -3.39551      -14.02825
C          8.55989       -2.19263      -10.81239
N          8.41652       -1.17230      -10.27304
C          9.13147       -6.64786      -12.53452
C          9.19435       -8.03232      -12.33971
S          8.96166       -8.45734      -10.67008
C          9.45513       -9.10187      -13.30294
C         10.25080       -8.91716      -14.41762
N         10.52278       -9.87947      -15.32343
C          9.97163      -11.08172      -15.08640
N          9.19548      -11.39384      -14.03705
C          8.94855      -10.38612      -13.17624
C         10.23961      -12.16382      -16.02569
C         10.29205      -13.53524      -15.76994
C         10.55739      -14.25732      -16.94823
C         10.66488      -13.42273      -18.03990
S         10.49538      -11.80744      -17.70604
C         10.89768      -14.20170      -19.19077
C         10.94751      -15.53101      -18.82558
C         10.74078      -15.64089      -17.38075
C         10.73770      -16.75286      -16.62253
C         10.93993      -18.03883      -17.18580
N         11.11314      -19.09352      -17.65080
C         10.54420      -16.70278      -15.21283
N         10.39673      -16.67084      -14.06564
C         11.16909      -16.36607      -19.94024
C         11.27332      -15.60885      -21.10049
S         11.10378      -13.90961      -20.81394
H         13.14779        6.16426        4.06249
H         10.58045        8.90770        6.09250
H          8.58988        7.57772        5.46299
H         12.22831        4.13289        3.04180
H          7.60435        5.57155        4.34304
H          6.92210        0.73173        2.09188
H          9.55605        0.94616       -0.12133
H         12.24201       -1.28785       -1.82209
H         10.98829       -1.08422       -4.60468
H         11.48946       -2.58310       -3.80035
H         13.28672       -0.40237       -4.46341
H         12.97401       -1.64476       -5.47471
H         11.78485        1.11264       -1.53391
H         11.10357        1.21938       -3.16159
H         13.88701        0.49182       -2.56070
H         13.38900        2.00645       -2.92309
H          8.73178       -1.15896       -4.34681
H          6.44910       -2.28783       -3.93844
H          6.43289       -4.78338       -3.18674
H          7.64167       -4.84659       -1.04291
H          8.46206       -3.76579        1.31917
H          8.12428       -1.85098        2.86441
H          7.08491       -2.75531       -6.12204
H          8.60338       -5.17212       -4.95250
H          8.33577       -2.97638       -8.13020
H          9.26147       -6.18234      -13.50446
H         10.72906       -7.96393      -14.62662
H          8.29795      -10.66820      -12.35200
H         10.14341      -13.94035      -14.77515
H         11.24912      -17.44605      -19.94388
H         11.44124      -15.96066      -22.10948
