98

C         -3.73103       -3.09057       -1.07135
C         -3.55318       -4.18592       -0.29299
C         -3.00507       -5.40296       -0.78581
N         -2.56110       -6.39836       -1.18571
C         -3.84276       -4.19510        1.10456
N         -4.08623       -4.19915        2.23810
C         -3.32917       -2.94335       -2.50402
C         -3.29955       -1.58277       -2.81905
C         -2.96111       -1.07539       -4.06809
C         -2.64613       -2.00039       -5.08617
C         -2.69488       -3.37092       -4.78863
C         -3.03973       -3.86433       -3.50403
S         -2.29421       -4.32125       -6.17541
C         -2.06710       -2.94872       -7.13029
C         -2.27985       -1.77592       -6.45719
Br        -1.57722       -3.02687       -8.93629
C         -3.73978       -0.77228       -1.67786
O         -3.72339        0.43994       -1.64236
C         -4.19533       -1.75484       -0.63368
C         -5.01503       -1.42967        0.37815
C         -5.46393       -0.10575        0.61136
C         -4.87782        0.88542        1.39626
C         -5.68802        2.03797        1.43630
C         -6.81909        1.88130        0.66793
S         -6.96918        0.41123       -0.08386
C         -7.62720        3.02282        0.81141
C         -7.02182        3.89318        1.68679
C         -5.72469        3.34225        2.08967
C         -4.77633        3.90258        2.86996
C         -3.55754        3.22958        3.16383
N         -2.56363        2.67527        3.41072
C         -4.93776        5.19826        3.42983
N         -5.05433        6.25567        3.89601
C         -7.86856        4.98492        1.97595
C         -9.09163        4.89661        1.29178
S         -9.10121        3.50336        0.23655
C        -10.29838        5.77254        1.36468
C        -11.56745        5.23170        1.11071
C        -12.71456        6.01839        1.16517
C        -12.66002        7.36830        1.54641
C        -11.39144        7.90807        1.86592
C        -10.20636        7.12766        1.72233
N         -8.99002        7.69186        1.92292
C         -8.90916        8.98120        2.31705
C        -10.06018        9.71478        2.53161
N        -11.28320        9.18080        2.30146
C        -10.06765       11.15548        2.92107
C         -7.53101        9.55908        2.41654
C        -13.94236        8.18240        1.57465
C        -13.96078        9.49334        1.24441
C        -15.17150       10.27540        1.18915
C        -16.49893        9.67867        1.37236
C        -16.70237        8.40742        1.70834
S        -15.40781        7.28897        2.02534
C        -17.44096       10.71115        1.18150
C        -16.78202       11.89045        0.93652
C        -17.64182       12.98172        0.73019
C        -18.96189       12.56053        0.82055
S        -19.10414       10.86404        1.17235
C        -15.36620       11.60431        0.93978
C        -14.36454       12.62053        0.75248
C        -13.41775       12.60377       -0.20046
C        -12.40576       13.60990       -0.37698
C        -12.25038       14.76715        0.45124
C        -11.20077       15.56294        0.06171
S        -10.72010       17.05796        0.84347
C         -9.57786       16.39837        2.07921
S        -10.40246       14.93465       -1.30216
C        -11.45636       13.57002       -1.39145
C        -11.24446       12.59657       -2.40872
C        -11.63002       12.83204       -3.66904
H         -2.96379       -0.00396       -4.25124
H         -3.08353       -4.93695       -3.35535
H         -2.18668       -0.79469       -6.90724
H         -5.43172       -2.17094        1.05022
H         -3.93885        0.73482        1.91377
H         -7.64753        5.78015        2.67732
H        -11.69596        4.17986        0.86298
H        -13.65636        5.53908        0.90504
H         -9.20678       11.43000        3.53401
H        -10.96397       11.37309        3.51166
H        -10.08471       11.77134        2.01805
H         -7.42763       10.22216        3.27908
H         -7.29936       10.11737        1.50399
H         -6.78366        8.76668        2.53243
H        -13.05048       10.01407        0.97012
H        -17.71206        8.03176        1.83806
H        -17.34773       14.00085        0.51320
H        -19.85787       13.15377        0.69502
H        -14.44326       13.44782        1.45207
H        -13.41573       11.76899       -0.90087
H        -12.87765       15.01385        1.29825
H         -9.16138       17.22467        2.66104
H         -8.75626       15.86598        1.59276
H        -10.09418       15.71780        2.76264
H        -10.80651       11.64153       -2.13243
H        -12.08602       13.77248       -3.96538
H        -11.50346       12.07586       -4.43699
