82

C          4.39232       -2.10741        3.97469
C          3.65075       -2.36365        2.82785
C          2.95908       -1.20034        2.42014
C          3.19650       -0.13715        3.26375
S          4.22424       -0.47384        4.52860
C          2.47847        0.99005        2.79701
C          1.78997        0.64172        1.65725
C          2.06052       -0.77195        1.35007
C          1.60487       -1.51321        0.32146
C          0.74849       -0.95429       -0.66441
N          0.04855       -0.49600       -1.47234
C          1.93932       -2.88377        0.16435
N          2.20445       -4.00731        0.03760
C          1.04862        1.73779        1.14625
C          1.21009        2.88975        1.92794
S          2.27788        2.57088        3.27744
C          0.65998        4.19287        1.77007
C          1.19485        5.22763        1.08812
C          0.40253        6.48804        1.09408
O          0.86111        7.60159        0.42383
C          1.85634        7.28810       -0.55437
C          2.93018        6.41251        0.06451
O          2.38395        5.13660        0.40016
C         -0.75737        6.46163        1.79257
Si        -1.01290        4.71851        2.49151
C         -2.34909        3.73370        1.66748
C         -1.03257        4.64034        4.33152
C         -1.70626        7.52675        1.92004
S         -2.94040        7.66930        0.71657
C         -3.64714        9.02708        1.45794
C         -3.00031        9.42015        2.60950
C         -3.43935       10.62061        3.40642
C         -1.86556        8.54331        2.87141
C         -0.95986        8.72170        3.97301
C         -1.32681        9.14443        5.19353
C         -0.40020        9.40491        6.25916
C         -0.77405        9.89517        7.45076
C          0.13678       10.09510        8.53359
C          1.53122        9.98367        8.63316
C          2.38492        9.80223        7.50097
N          3.04543        9.70613        6.55339
C          1.94613       10.16721        9.95884
C          0.96334       10.57959       10.78626
S         -0.54156       10.60767       10.07417
S          1.49397       10.98013       12.33518
C          3.05547       10.52944       11.88428
C          3.16677       10.07814       10.61917
C          4.44453        9.56982       10.29975
C          4.79057        8.82857        9.13029
N          5.10347        8.16263        8.23063
C          5.32836        9.78996       11.36661
S          4.49037       10.49977       12.71712
C          6.79415        9.40295       11.42390
C          7.69675        9.58737       12.45565
O          8.87944        8.99096       12.12586
N          8.80650        8.46807       10.85736
C          7.56681        8.72713       10.44262
C          7.70666       10.24495       13.73141
O          7.05766       11.23680       14.04857
H          5.02821       -2.79436        4.51981
H          3.64510       -3.33736        2.35112
H          0.42778        1.73070        0.25803
H          1.37406        6.79503       -1.40783
H          2.28981        8.23051       -0.90302
H          3.35055        6.86458        0.97071
H          3.74464        6.24565       -0.64730
H         -2.25618        3.78651        0.57698
H         -3.34849        4.08534        1.93585
H         -2.27691        2.67698        1.94586
H         -0.21241        5.22849        4.75626
H         -0.91367        3.61070        4.68277
H         -1.96791        5.02905        4.74384
H         -4.51098        9.49908        1.00947
H         -4.30042       11.11709        2.94639
H         -2.63357       11.35811        3.48713
H         -3.76763       10.34086        4.41154
H          0.09220        8.51937        3.77108
H         -2.36924        9.30885        5.43399
H          0.62237        9.16087        6.00536
H         -1.82638       10.11922        7.62460
H          7.31437        8.38180        9.45121
H          8.40857        9.80528       14.45841
