113

C         -3.36893       -1.41547       -0.72873
C         -3.08983       -2.68198       -1.11881
C         -2.44365       -3.63769       -0.27274
N         -1.93496       -4.42051        0.40813
C         -3.44059       -3.20281       -2.39514
N         -3.71092       -3.63673       -3.44090
C         -2.99511       -0.81963        0.60158
C         -3.63790        0.41186        0.72236
C         -3.54528        1.24660        1.82840
C         -2.63178        0.89356        2.83868
C         -1.94922       -0.32669        2.73229
C         -2.14244       -1.21423        1.63635
S         -0.87996       -0.54439        4.07726
C         -1.29147        0.95738        4.73383
C         -2.22410        1.63365        3.99754
Br        -0.54820        1.63975        6.31237
C         -4.34698        0.77183       -0.50645
O         -4.93109        1.82406       -0.66563
C         -4.16004       -0.37467       -1.46525
C         -4.67143       -0.34522       -2.71100
C         -5.40164        0.76028       -3.23964
O         -4.81328        1.85577       -3.88382
C         -6.74892        1.01481       -3.25465
C         -8.00041        0.47295       -2.83373
O         -8.20594       -0.60271       -2.29788
N         -8.92396        1.44154       -3.17859
C         -8.37093        2.56399       -3.76339
O         -8.94001        3.57477       -4.12796
C         -6.97349        2.26617       -3.83038
C         -5.78100        2.81547       -4.21649
C         -5.52167        4.09588       -4.78522
C         -4.30679        4.66037       -4.68694
C         -3.98625        6.00661       -5.07986
C         -4.17198        7.00837       -4.14734
S         -3.59066        8.50209       -4.68748
C         -3.06840        7.83928       -6.17546
C         -3.37287        6.49078       -6.32527
C         -3.03662        5.88489       -7.59985
C         -3.65510        4.52230       -7.91767
C         -2.90315        3.45782       -8.68953
C         -2.25972        6.64909       -8.59250
C         -1.66267        5.96963       -9.81943
C         -2.53370        5.92026      -11.06789
C         -1.97270        8.04682       -8.36905
C         -1.27561        9.08694       -9.13734
C         -1.27843       10.30712       -8.49033
S         -2.04312       10.24904       -6.98670
C         -2.40825        8.58964       -7.16419
C         -0.68162        8.98881      -10.44614
C          0.37067        9.71152      -10.86963
C          0.87789        9.66566      -12.22584
C          1.52325       10.66212      -12.85330
C          1.98809       10.58206      -14.21613
C          2.54119       11.71647      -14.66528
C          2.52679       12.80420      -13.70097
S          1.84613       12.24197      -12.17610
C          2.91251       14.07194      -13.94110
C          3.45080       14.56868      -15.19373
C          3.57408       15.90058      -15.24058
C          3.15582       16.55942      -14.02469
S          2.74782       15.39944      -12.79025
C          3.02317       17.88977      -13.93477
C          2.52454       18.64284      -12.80020
C          1.91224       19.83565      -12.85892
C          1.55100       20.71257      -13.97741
C          2.35911       21.21419      -14.93536
C          1.91911       22.17547      -15.89176
N          1.55342       22.95182      -16.67452
C          3.74836       20.90599      -15.00398
N          4.87161       20.64446      -15.09652
C          0.19483       21.22913      -13.66232
C         -0.03508       21.05721      -12.29304
C          1.04871       20.24615      -11.69583
O          1.15699       19.92999      -10.53119
C         -1.17305       21.52766      -11.65024
C         -2.14450       22.19338      -12.44012
C         -1.94667       22.27725      -13.82811
C         -0.78837       21.78472      -14.46482
S         -3.27705       23.04717      -14.61225
C         -4.05323       23.33165      -13.14304
C         -3.37408       22.83695      -12.06130
Br        -5.68874       24.23518      -13.01942
H         -4.11285        2.17122        1.87519
H         -1.57509       -2.13776        1.62713
H         -2.59656        2.62029        4.24382
H         -4.57084       -1.17246       -3.40187
H         -9.90959        1.35197       -2.99906
H         -6.34826        4.63992       -5.23792
H         -3.50956        4.11306       -4.18506
H         -4.59973        6.93260       -3.15537
H         -4.62121        4.71319       -8.40280
H         -3.89455        4.02608       -6.98058
H         -2.98436        3.61282       -9.76801
H         -3.34392        2.47325       -8.50235
H         -1.85442        3.40933       -8.39066
H         -1.29786        4.97559       -9.57149
H         -0.71581        6.45949      -10.06866
H         -3.48002        5.40158      -10.90033
H         -1.99507        5.38775      -11.86138
H         -2.77855        6.91660      -11.44765
H         -0.87211       11.24686       -8.83909
H         -1.16534        8.33444      -11.16161
H          0.86905       10.39595      -10.18683
H          0.68991        8.74060      -12.76809
H          1.87840        9.69087      -14.81896
H          2.92373       11.82036      -15.66991
H          3.71135       13.93142      -16.02628
H          3.92548       16.44085      -16.10984
H          3.25212       18.44217      -14.83679
H          2.53914       18.12420      -11.83939
H         -1.30876       21.38299      -10.58201
H         -0.69888       21.85840      -15.54240
H         -3.72198       22.92658      -11.04017
