93

C         -4.16020       -1.62034        1.58088
C         -5.42623       -2.09651        1.59834
C         -5.97051       -2.77511        2.72428
N         -6.42088       -3.33269        3.64277
C         -6.34337       -1.93319        0.52080
N         -7.08344       -1.81567       -0.36557
C         -3.15971       -1.67896        2.69433
C         -2.11747       -0.79564        2.40297
C         -0.98428       -0.63090        3.19389
C         -0.88279       -1.40863        4.36780
C         -1.92738       -2.29203        4.67852
C         -3.07119       -2.44809        3.85065
S         -1.60999       -3.13187        6.15607
C         -0.12345       -2.35789        6.35292
C          0.16914       -1.47769        5.34572
Br         1.01183       -2.67581        7.80872
C         -2.33785       -0.13722        1.10924
O         -1.65677        0.76242        0.66474
C         -3.52997       -0.82374        0.50077
C         -3.79064       -0.82010       -0.81607
C         -2.99651       -0.11893       -1.75126
O         -3.22835        1.19257       -2.13973
C         -1.92229       -0.54099       -2.48064
C         -1.11241       -1.69175       -2.71571
O         -1.25204       -2.80725       -2.24785
N         -0.17456       -1.25700       -3.62990
C         -0.35970        0.04826       -4.04874
O          0.25819        0.64867       -4.90830
C         -1.47280        0.50724       -3.27797
C         -2.27959        1.59607       -3.08228
C         -2.24629        2.88007       -3.68210
C         -3.38445        3.56481       -3.86762
C         -3.42456        4.85462       -4.51826
C         -4.47045        5.36720       -5.19919
C         -5.78342        4.66551       -5.43553
C         -4.37818        6.74890       -5.80393
N         -3.84679        6.64346       -7.14666
C         -3.60796        7.69693       -7.98955
C         -3.12937        7.64876       -9.24042
C         -2.98613        8.84661      -10.04776
C         -3.02010        8.92094      -11.38708
C         -3.07262       10.17162      -12.11322
C         -3.59951       10.04183      -13.34068
C         -3.99434        8.67392      -13.64400
S         -3.24971        7.57758      -12.47676
C         -4.98030        8.30591      -14.48426
C         -5.87045        9.22020      -15.18227
C         -7.11837        8.73209      -15.27560
C         -7.24002        7.40654      -14.69616
S         -5.66508        6.67725      -14.54170
C         -8.38228        6.91177      -14.19466
C         -8.54441        5.67015      -13.42168
C         -8.83184        4.35635      -13.89387
O         -8.99147        4.02343      -15.22737
C         -9.50700        5.00487      -16.11718
C         -8.95672        3.22506      -12.99920
O         -9.23006        1.99576      -13.58154
C         -9.90013        1.04422      -12.75078
C         -8.78800        3.32463      -11.60592
C         -8.52494        4.60899      -11.09797
C         -8.41947        5.80378      -12.00029
N         -8.21690        6.94124      -11.30653
S         -8.05944        6.51924       -9.71094
N         -8.34726        4.88995       -9.79798
H         -0.19326        0.05122        2.89375
H         -3.81744       -3.17937        4.13833
H          1.08418       -0.89939        5.29670
H         -4.57681       -1.41933       -1.25640
H          0.52169       -1.86193       -4.02970
H         -1.29267        3.25589       -4.04185
H         -4.32897        3.13995       -3.53576
H         -2.50832        5.44280       -4.44973
H         -5.83825        3.67321       -4.98116
H         -5.95399        4.53489       -6.50939
H         -6.60815        5.25582       -5.02305
H         -3.72582        7.38927       -5.19742
H         -5.36531        7.22662       -5.81656
H         -3.69513        5.70976       -7.51858
H         -3.88867        8.65387       -7.55172
H         -2.87420        6.69148       -9.68698
H         -2.94010        9.77810       -9.48634
H         -2.79843       11.11831      -11.66945
H         -3.79589       10.87850      -13.99550
H         -5.59614       10.22449      -15.47290
H         -7.96244        9.29125      -15.65349
H         -9.27681        7.52748      -14.22267
H         -8.74395        5.73629      -16.39175
H        -10.40593        5.48700      -15.71764
H         -9.78725        4.50183      -17.04792
H        -10.06899        0.13320      -13.33214
H        -10.87421        1.43193      -12.43219
H         -9.29860        0.74705      -11.88515
H         -8.83995        2.49380      -10.91880
