84

C          2.81820        0.70129       -0.82551
C          1.71685        0.13796       -1.43005
C          1.38981       -1.27516       -1.34504
N          0.22073       -1.66822       -1.88654
C         -0.46856       -0.77980       -2.67228
C         -0.09297        0.53720       -2.79620
N          0.97841        1.01355       -2.12464
C         -0.79118        1.48172       -3.61862
N         -1.37064        2.23579       -4.28365
C         -1.57123       -1.32436       -3.40171
N         -2.45385       -1.75786       -4.01749
C          2.26334       -2.24766       -0.76124
C          3.47673       -1.67410       -0.23571
C          3.70838       -0.18659       -0.21183
N          4.82580        0.18178        0.42826
S          5.56268       -1.21279        0.92566
N          4.54590       -2.33786        0.24500
C          2.02810       -3.74602       -0.70069
C          1.34643       -4.51887       -1.68404
C          0.85542       -4.10680       -3.00803
O          1.36555       -3.22890       -3.68781
S         -0.38091       -5.17804       -3.60744
C          0.22363       -6.45607       -2.58895
O         -0.09699       -7.62340       -2.71305
C          1.12834       -5.91381       -1.55801
C          1.73426       -6.66520       -0.55414
C          2.45370       -5.93483        0.37635
C          2.49795       -4.54967        0.36577
C          2.98562       -4.19748        1.69817
O          2.79598       -3.15138        2.27914
O          3.53011       -5.31791        2.22678
C          3.25120       -6.42289        1.49716
O          3.59540       -7.55392        1.72178
C          1.62187       -8.11494       -0.44940
C          0.66888       -8.71775        0.28120
C          0.61163      -10.12960        0.37796
S          1.08797      -11.21562       -0.86428
C          0.65853      -12.62731        0.03531
C          0.19553      -12.22460        1.25472
C          0.14474      -10.83880        1.44419
S         -0.53039      -10.42685        3.07102
C         -0.65458      -12.20801        3.24304
N         -0.26255      -13.03044        2.26228
C          0.81181      -13.88380       -0.59801
C          1.02935      -15.02106        0.07917
C          1.16614      -16.26076       -0.59411
S          1.10298      -16.49770       -2.31761
C          1.32370      -18.22302       -2.23357
C          1.44888      -18.53008       -0.92266
C          1.36582      -17.47345       -0.04540
N          1.50547      -17.86863        1.25060
N          1.69756      -19.22784        1.30927
C          1.66532      -19.61388       -0.00631
C          1.33283      -18.97246       -3.43361
C          0.88621      -20.23430       -3.46409
C          0.84086      -20.99969       -4.68887
C          0.00519      -22.01750       -4.93136
C         -1.03253      -22.52323       -4.06958
C         -1.71749      -23.54390       -4.59945
C         -1.27381      -23.92943       -5.92915
S          0.04439      -22.87940       -6.45014
C         -1.77460      -24.93744       -6.66570
C         -2.85223      -25.82600       -6.26754
C         -3.14927      -26.76575       -7.17420
C         -2.33438      -26.69076       -8.35668
S         -1.19045      -25.38042       -8.27304
C         -2.41834      -27.51024       -9.40638
H          3.01356        1.76765       -0.85913
H          2.38468       -8.67894       -0.98360
H         -0.07396       -8.13819        0.82327
H         -1.06040      -12.59196        4.17059
H          0.75179      -13.87917       -1.68298
H          1.10683      -15.00037        1.16353
H          1.48283      -17.30798        2.09399
H          1.80362      -20.66197       -0.23743
H          1.64099      -18.47546       -4.35123
H          0.51341      -20.71150       -2.56239
H          1.54964      -20.70217       -5.46239
H         -1.24854      -22.11186       -3.09360
H         -2.52783      -24.03132       -4.07670
H         -3.37090      -25.74494       -5.32338
H         -3.91989      -27.51126       -7.04240
H         -3.13899      -28.31976       -9.43695
H         -1.76701      -27.39435      -10.26750
