126

C        -19.90783       -5.39188        4.10999
C        -19.44967       -5.15384        5.40504
F        -20.31678       -5.19968        6.42543
C        -18.11128       -4.87605        5.64303
F        -17.67527       -4.66110        6.89167
C        -17.20807       -4.81695        4.59014
C        -17.64802       -5.04212        3.27909
C        -19.01912       -5.34987        3.02366
C        -19.45687       -5.61202        1.70145
C        -18.55134       -5.54891        0.64914
C        -17.22307       -5.22218        0.94491
C        -16.74594       -4.97239        2.22004
C        -16.40611       -5.23689       -0.26857
O        -15.31379       -4.72016       -0.35879
C        -17.24100       -5.93303       -1.30492
C        -18.64035       -5.79055       -0.82416
C        -19.75347       -5.67565       -1.58733
C        -19.70488       -5.72558       -3.01187
N        -19.66510       -5.76704       -4.17044
C        -21.03712       -5.40098       -1.03099
N        -22.07565       -5.17908       -0.56593
C        -16.76358       -6.68380       -2.31884
C        -15.35188       -6.92599       -2.70279
C        -15.04655       -7.11023       -4.06978
C        -13.72054       -7.17538       -4.52066
C        -12.70275       -7.02987       -3.59343
C        -12.99438       -6.95334       -2.21949
C        -14.30619       -6.96986       -1.76991
C        -11.70950       -6.70338       -1.42154
C        -11.84912       -5.62878       -0.33949
C        -11.25458       -8.03100       -0.79042
C        -10.75320       -6.30371       -2.55224
C         -9.58230       -5.55116       -2.50880
C         -8.92661       -5.23500       -3.71407
C         -9.41146       -5.79252       -4.91532
C        -10.61057       -6.50652       -4.96543
C        -11.31144       -6.68471       -3.79164
C         -7.87413       -4.19009       -3.70180
C         -6.79082       -4.03757       -4.48221
C         -5.84234       -2.94996       -4.34226
C         -4.67902       -3.17471       -4.97425
C         -4.62430       -4.48165       -5.60704
S         -6.25068       -5.13432       -5.72733
C         -3.51427       -5.20747       -5.83729
C         -2.15833       -4.83256       -5.48322
C         -1.39866       -5.89289       -5.15795
C         -2.12120       -7.14823       -5.25440
S         -3.52512       -6.91201       -6.27629
C         -1.80005       -8.26109       -4.56661
C         -2.56849       -9.52229       -4.46403
C         -3.97838       -9.51074       -4.40993
C         -4.72159      -10.68437       -4.49171
C         -4.03993      -11.88225       -4.54251
C         -2.63857      -11.93294       -4.39973
C         -1.89334      -10.75524       -4.37771
C         -2.18808      -13.40360       -4.38649
C         -0.97291      -13.65958       -5.27750
C         -1.89596      -13.84031       -2.93949
C         -3.46311      -14.11253       -4.87865
C         -3.64588      -15.40900       -5.36027
C         -4.91196      -15.79673       -5.84693
C         -5.96993      -14.85945       -5.81784
C         -5.78921      -13.56635       -5.31405
C         -4.53304      -13.19779       -4.87146
C         -5.03229      -17.07921       -6.57906
C         -6.08192      -17.90710       -6.70754
C         -6.14028      -18.76458       -7.94297
O         -5.22117      -19.23897       -8.57620
C         -7.57833      -18.80982       -8.29393
C         -8.13136      -19.28664       -9.46871
C         -9.50230      -19.08513       -9.67925
C        -10.27874      -18.37389       -8.71056
C        -11.63710      -18.13262       -8.96633
C        -12.22294      -18.60356      -10.13752
C        -11.47507      -19.31792      -11.06241
C        -10.12215      -19.55823      -10.84428
F        -12.04974      -19.78015      -12.18102
F        -13.52154      -18.36207      -10.36323
C         -9.68384      -17.92762       -7.51467
C         -8.33993      -18.18403       -7.29332
C         -7.43376      -17.92439       -6.14933
C         -7.77172      -18.10371       -4.85077
C         -6.77691      -18.31018       -3.84814
N         -5.98798      -18.53342       -3.02769
C         -9.13295      -18.26170       -4.43038
N        -10.23529      -18.36537       -4.11757
H        -20.96398       -5.60624        3.96840
H        -16.16636       -4.59605        4.80859
H        -20.49844       -5.87680        1.54052
H        -15.69260       -4.74942        2.36963
H        -17.45871       -7.20552       -2.97374
H        -15.84128       -7.13872       -4.81365
H        -13.50770       -7.23257       -5.58312
H        -14.48874       -6.91359       -0.70434
H        -12.58402       -5.91830        0.42081
H        -12.16419       -4.66651       -0.75728
H        -10.89843       -5.46810        0.18336
H        -11.97942       -8.38398       -0.04668
H        -10.28462       -7.92479       -0.29192
H        -11.14962       -8.82740       -1.53853
H         -9.22240       -5.15929       -1.56188
H         -8.90522       -5.62103       -5.85896
H        -11.00820       -6.83056       -5.92031
H         -8.04221       -3.43645       -2.93046
H         -6.05117       -2.06320       -3.75921
H         -3.84280       -2.49158       -4.95447
H         -1.82705       -3.80732       -5.41622
H         -0.38294       -5.82635       -4.79739
H         -0.89419       -8.25415       -3.96430
H         -4.52991       -8.57524       -4.35870
H         -5.80223      -10.63722       -4.56464
H         -0.80861      -10.79183       -4.34715
H         -0.09333      -13.11473       -4.91409
H         -1.15494      -13.34423       -6.31051
H         -0.70886      -14.72322       -5.29526
H         -1.05568      -13.27942       -2.51388
H         -1.64887      -14.90729       -2.88814
H         -2.75878      -13.67835       -2.28002
H         -2.80449      -16.09508       -5.40353
H         -6.94076      -15.08117       -6.25069
H         -6.59858      -12.84341       -5.34509
H         -4.16779      -17.27138       -7.22175
H         -7.50075      -19.77816      -10.20454
H        -12.25750      -17.58167       -8.26388
H         -9.56671      -20.11613      -11.59348
H        -10.28000      -17.38273       -6.78645
