147

C          2.82426      -13.80335       -1.44796
C          2.55429      -14.86992       -2.30170
F          3.56775      -15.61385       -2.76641
C          1.25145      -15.14923       -2.68485
F          0.99744      -16.15972       -3.52768
C          0.19639      -14.37399       -2.21302
C          0.44374      -13.28317       -1.36397
C          1.77973      -12.98303       -0.98029
C          2.04026      -11.84721       -0.17711
C          1.00464      -10.99640        0.21898
C         -0.29530      -11.33651       -0.16064
C         -0.60038      -12.45994       -0.92320
C         -1.25715      -10.29335        0.22679
O         -2.42303      -10.28564       -0.11271
C         -0.48182       -9.21149        0.91316
C          0.95909       -9.66538        0.91980
C          2.04461       -9.06747        1.49896
C          3.33321       -9.67180        1.57358
N          4.39605      -10.14835        1.64099
C          1.99952       -7.76471        2.07000
N          2.01399       -6.68352        2.49221
C         -1.06693       -8.11091        1.44234
C         -2.49340       -7.84208        1.86296
C         -2.76867       -7.67060        3.26652
C         -1.72414       -7.92137        4.32539
O         -0.75810       -8.60940        3.98168
C         -1.77131       -7.50506        5.75390
C         -1.06292       -8.35374        6.61241
S         -1.00073       -7.87231        8.23287
C         -1.96294       -6.52505        7.88346
C         -2.36363       -6.42570        6.54988
C         -3.35300       -5.37375        6.29724
O         -4.42066       -5.39535        6.91212
C         -3.08541       -4.15364        5.50316
C         -3.45635       -2.91839        6.06826
C         -3.43173       -1.74960        5.30462
C         -3.06640       -1.81200        3.96317
C         -2.68985       -3.03131        3.40063
C         -2.67404       -4.19543        4.17464
C         -4.05908       -7.32210        3.65208
C         -5.05316       -7.08732        2.69236
C         -4.87486       -7.29989        1.30380
C         -3.55761       -7.66422        0.91523
C         -6.10866       -7.18406        0.41030
C         -6.22415       -6.59806       -0.86812
C         -5.11956       -6.07848       -1.70169
O         -4.21553       -5.50134       -1.09428
C         -5.06405       -6.17934       -3.20476
C         -4.10666       -5.35691       -3.80123
S         -3.87793       -5.59898       -5.45858
C         -5.08501       -6.79000       -5.47803
C         -5.76640       -6.95410       -4.27610
C         -7.01758       -7.74906       -4.25944
O         -8.03877       -7.37592       -3.68978
C         -7.22978       -8.97820       -5.06241
C         -7.28862       -8.95187       -6.46122
C         -7.64083      -10.10052       -7.17485
C         -8.00602      -11.26058       -6.49489
C         -8.03224      -11.27148       -5.10102
C         -7.64849      -10.13374       -4.38530
C         -7.50251       -6.33594       -1.37046
C         -8.66267       -6.91912       -0.84457
C         -8.64015       -7.63488        0.33768
C         -7.35348       -7.67361        0.95790
C         -9.84717       -8.35340        0.91411
C        -11.22746       -8.11380        0.66514
C        -11.76190       -6.98537       -0.15597
O        -11.21476       -5.90469       -0.00490
C        -12.88262       -7.20663       -1.10297
C        -12.95780       -8.42586       -1.77620
S        -14.30004       -8.58902       -2.79993
C        -14.80106       -7.01456       -2.43482
C        -13.99007       -6.32436       -1.52944
C        -14.46757       -4.95611       -1.19010
O        -15.51976       -4.53288       -1.68209
C        -13.83832       -4.02652       -0.23597
C        -14.66281       -3.35626        0.68308
C        -14.11417       -2.46931        1.61154
C        -12.73743       -2.26457        1.63964
C        -11.93041       -2.86222        0.67462
C        -12.49674       -3.67945       -0.30694
C        -12.21531       -8.90833        1.29198
C        -11.87661       -9.96386        2.13862
C        -10.54233      -10.26711        2.38898
C         -9.58141       -9.45823        1.76880
C        -10.24449      -11.45703        3.22125
C         -9.15815      -12.24849        3.21857
C         -9.37614      -13.71026        3.52290
O        -10.16233      -14.20620        4.29967
C         -8.50489      -14.42118        2.55174
C         -8.47866      -15.77376        2.27013
C         -7.68834      -16.20403        1.19158
C         -6.99064      -15.24768        0.38672
C         -6.25836      -15.67863       -0.72637
C         -6.17704      -17.03395       -1.02021
C         -6.81793      -17.96857       -0.21877
C         -7.57790      -17.56492        0.87609
F         -6.71176      -19.27504       -0.49503
F         -5.46450      -17.42914       -2.08370
C         -7.02360      -13.88619        0.71649
C         -7.73679      -13.49094        1.83363
C         -7.88657      -12.18967        2.50978
C         -6.85333      -11.35350        2.76752
C         -6.93369      -10.36212        3.79098
N         -7.00168       -9.54072        4.60538
C         -5.60139      -11.48254        2.10606
N         -4.60551      -11.63551        1.53491
H          3.86042      -13.61141       -1.17847
H         -0.81097      -14.61733       -2.53961
H          3.07916      -11.64936        0.06546
H         -1.63280      -12.64932       -1.20598
H         -0.43503       -7.33275        1.85970
H         -0.55455       -9.27005        6.33655
H         -2.24260       -5.86889        8.69890
H         -3.80055       -2.86621        7.10060
H         -3.73001       -0.80097        5.74530
H         -3.08738       -0.91404        3.35008
H         -2.43424       -3.08338        2.34436
H         -2.39519       -5.11899        3.69390
H         -4.34383       -7.23014        4.69608
H         -6.01527       -6.74344        3.07689
H         -3.33638       -7.82261       -0.13931
H         -3.48747       -4.62063       -3.30333
H         -5.27304       -7.24642       -6.43548
H         -7.12797       -8.03387       -7.01751
H         -7.66886      -10.07791       -8.26220
H         -8.30724      -12.14409       -7.05369
H         -8.37901      -12.15783       -4.57514
H         -7.72780      -10.13336       -3.30021
H         -7.62285       -5.70211       -2.24944
H         -9.56189       -6.79906       -1.43982
H         -7.30148       -8.10369        1.95522
H        -12.27944       -9.26609       -1.71105
H        -15.70633       -6.64291       -2.90316
H        -15.74089       -3.50708        0.66358
H        -14.75811       -1.94492        2.31264
H        -12.29418       -1.62192        2.39560
H        -10.85465       -2.70505        0.68407
H        -11.86380       -4.07410       -1.09665
H        -13.27465       -8.70777        1.13321
H        -12.67904      -10.55546        2.57679
H         -8.55022       -9.70411        1.92695
H        -11.12002      -11.83186        3.75905
H         -9.06912      -16.46507        2.86528
H         -5.73621      -14.97478       -1.36961
H         -8.06939      -18.32575        1.47640
H         -6.49076      -13.16250        0.10426
