96

C         -6.30994        3.01542       -2.82750
C         -7.01800        4.08556       -2.39561
C         -8.08253        3.96660       -1.45772
N         -8.93273        3.85658       -0.67564
C         -6.78121        5.39726       -2.90626
N         -6.57532        6.45491       -3.34020
C         -6.65257        1.59055       -2.60082
C         -6.20993        0.85210       -3.71016
C         -6.40368       -0.51426       -3.83030
C         -7.01752       -1.18826       -2.76329
C         -7.39209       -0.46937       -1.59026
C         -7.21346        0.92521       -1.52336
C         -7.92934       -1.17006       -0.50057
C         -8.13059       -2.54894       -0.56786
C         -7.80081       -3.24565       -1.72671
C         -7.24241       -2.57208       -2.81503
C         -5.38937        1.71383       -4.59083
O         -4.86181        1.40010       -5.63631
C         -5.24640        3.00897       -3.83404
C         -4.08840        3.68377       -3.94529
C         -3.52985        4.67866       -3.02634
N         -4.09729        4.98578       -1.82612
N         -3.57074        5.98598       -0.90751
C         -2.40776        6.65635       -1.12431
C         -1.71937        6.25735       -2.29532
C         -2.29481        5.31798       -3.25606
N         -1.45671        5.23305       -4.30132
O         -0.36872        6.02018       -3.99059
N         -0.50444        6.60026       -2.75296
C         -1.97702        7.73876       -0.22933
C         -2.30677        8.04877        1.10263
C         -3.25604        7.28534        1.84999
N         -4.02014        6.65041        2.44997
C         -1.50163        9.11970        1.57081
C         -0.69442        9.63495        0.61991
S         -0.89068        8.95265       -0.87443
S          0.35812       10.83828        1.13980
C         -0.25284       10.64478        2.69420
C         -1.26411        9.75134        2.79529
C         -1.79536        9.67421        4.09734
C         -2.97270        8.98476        4.52540
N         -3.93595        8.48887        4.93864
C         -1.01515       10.43102        4.98592
S          0.19047       11.35283        4.13377
C         -1.09951       10.52456        6.43282
C         -0.74906       11.60215        7.25144
C         -1.00979       11.31486        8.60950
C         -1.51369       10.04343        8.77173
S         -1.62309        9.15931        7.38149
C         -1.78333        9.81965       10.13522
C         -1.45284       10.95551       10.82980
C         -0.91672       11.95975        9.91836
C         -0.41625       13.17374       10.22251
C         -0.36509       13.67040       11.55499
N         -0.31867       14.12274       12.62206
C          0.09747       14.03324        9.21984
N          0.51799       14.73857        8.39312
C         -1.74649       10.82382       12.19374
C         -2.12979        9.52511       12.53032
S         -2.38000        8.58170       11.06807
C         -2.35838        8.88885       13.79342
C         -1.68471        9.14936       14.93084
C         -1.70353        8.39559       16.21692
C         -2.77747        7.80729       16.80397
C         -2.71885        7.21727       18.09706
N         -2.66821        6.72591       19.14935
C         -4.06181        7.78464       16.18958
N         -5.10688        7.75582       15.68303
C         -0.35364        8.58148       16.83702
C          0.30557        9.58553       16.12520
C         -0.53558       10.10562       15.06309
O         -0.30061       11.15826       14.51445
C          1.59498       10.02198       16.36951
C          2.28894        9.42435       17.41057
C          1.65724        8.41302       18.18897
C          0.33798        7.98792       17.88386
C          2.37773        7.85772       19.25519
C          3.68445        8.27257       19.53177
C          4.29819        9.24377       18.74494
C          3.60233        9.82001       17.68741
H         -6.04425       -1.04455       -4.70805
H         -7.48252        1.45493       -0.61375
H         -8.19624       -0.64763        0.41669
H         -8.55015       -3.07756        0.28482
H         -7.97253       -4.31786       -1.78163
H         -6.98301       -3.14167       -3.70513
H         -3.40864        3.39227       -4.74915
H         -0.35521       12.53424        6.86341
H         -1.62667       11.61514       12.91674
H         -3.06056        8.05830       13.76472
H          2.03031       10.80192       15.75046
H         -0.09683        7.19048       18.47858
H          1.92557        7.09820       19.88938
H          4.22626        7.83394       20.36560
H          5.31687        9.55824       18.95664
H          4.09281       10.58080       17.08246
