95

C        -11.47411       20.19783        3.10029
O        -12.64817       19.51559        3.03706
C        -12.34460       18.24635        2.66312
C        -10.98756       18.10941        2.48110
C        -10.41769       19.37551        2.77287
C         -9.05075       19.78335        2.75895
C         -8.01278       19.01410        2.39298
C         -6.64163       19.47843        2.41364
C         -5.68273       18.90455        1.67375
C         -4.28651       19.31366        1.70144
C         -3.25075       18.52698        1.36670
C         -1.85277       18.89572        1.39696
C         -1.01097       17.88330        1.12153
C         -1.67955       16.61775        0.89156
S         -3.43264       16.86234        0.91545
C         -1.14032       15.40180        0.68304
C          0.24377       15.00402        0.52359
C          0.40147       13.70756        0.19466
C         -0.84634       12.96725        0.08518
S         -2.16182       13.99072        0.57570
C         -0.99988       11.71432       -0.38596
C         -2.25093       11.04338       -0.56998
S         -3.68438       11.18785        0.39380
C         -4.69990       10.25102       -0.67737
C         -3.86531        9.75646       -1.62830
C         -2.53585       10.14230       -1.53077
O         -1.66199        9.60933       -2.43597
C         -2.53856        8.83525       -3.16818
N         -1.96605        8.05383       -4.21903
O         -2.73867        7.34191       -4.87113
O         -0.74403        8.14770       -4.40184
C         -3.87565        8.93211       -2.77370
C         -6.08349       10.14949       -0.32185
C         -6.86219        9.07358       -0.49597
C         -8.20215        8.93785        0.04302
C         -8.67186        7.67872        0.00319
C         -7.72770        6.73243       -0.57107
S         -6.38616        7.59867       -1.26908
C         -7.75215        5.39389       -0.49936
C         -8.72890        4.58545        0.19482
C         -8.29575        3.33921        0.44955
C         -6.96240        3.08044       -0.05108
S         -6.43920        4.36571       -1.09624
C         -6.21072        2.03169        0.30848
C         -4.80420        1.80123       -0.08111
C         -4.54184        1.07422       -1.24222
C         -3.22774        0.78524       -1.59392
C         -2.16362        1.23092       -0.79695
C         -2.41932        1.96782        0.37512
C         -3.75416        2.26274        0.72718
N         -4.02181        2.95946        1.85117
C         -3.00075        3.35846        2.64833
C         -3.41192        4.11147        3.88701
C         -4.76142        3.62913        4.42010
C         -1.68314        3.09746        2.29140
C         -0.49017        3.46727        3.13366
C          0.76362        3.72099        2.29791
N         -1.40722        2.38365        1.16919
C         -0.77144        0.86452       -1.14642
C         -0.30098        0.70898       -2.39090
H        -11.55947       21.23590        3.39026
H        -13.18442       17.57176        2.57268
H        -10.48321       17.20181        2.18247
H         -8.84923       20.81324        3.04990
H         -8.17575       17.98815        2.06866
H         -6.39781       20.28969        3.09451
H         -5.94973       18.08903        1.00162
H         -4.09290       20.32883        2.03745
H         -1.52917       19.89741        1.64188
H          0.06477       17.98379        1.12113
H          1.06618       15.70081        0.61657
H          1.36221       13.24802        0.00028
H         -0.11389       11.19052       -0.74837
H         -4.69757        8.42378       -3.25588
H         -6.49576       10.97985        0.25100
H         -8.73990        9.76384        0.48815
H         -9.63248        7.38663        0.39686
H         -9.68163        4.96642        0.53216
H         -8.85982        2.61101        1.00722
H         -6.59162        1.30974        1.02443
H         -5.35642        0.71974       -1.86930
H         -3.04503        0.19209       -2.48597
H         -3.47265        5.18017        3.65080
H         -2.67361        3.98467        4.68520
H         -5.56412        3.79673        3.69186
H         -5.03010        4.16091        5.33599
H         -4.73040        2.55568        4.64034
H         -0.29788        2.64766        3.83638
H         -0.68794        4.37081        3.71933
H          1.03381        2.84718        1.69405
H          1.61661        3.95121        2.94286
H          0.61019        4.56448        1.61573
H         -0.08919        0.74598       -0.30535
H         -0.91741        0.85086       -3.27339
H          0.74094        0.45476       -2.55380
