68

C         -1.43675        4.72262       -1.80689
O         -2.32571        3.69945       -1.81406
C         -1.72487        2.65633       -1.18602
C         -0.45873        3.00174       -0.77472
C         -0.26991        4.34401       -1.18364
C          0.88468        5.14708       -0.98382
C          1.00898        6.42503       -1.37925
C          2.17535        7.24472       -1.16185
C          2.99059        7.12290       -0.10496
C          4.13404        7.94141        0.13150
C          5.22964        7.64268        0.83127
C          6.08109        8.78319        0.84058
C          5.40526        9.85833        0.09065
O          5.77259       10.99321       -0.11145
N          4.22257        9.24459       -0.31086
C          7.13637        8.43066        1.55277
O          7.07661        7.09067        2.03656
C          5.86838        6.57027        1.58792
O          5.43992        5.45236        1.78203
C          8.25300        9.23403        1.91830
S          8.82836       10.48382        0.89607
C         10.09793       10.96135        1.95682
C         10.07780       10.19117        3.11859
C          9.04790        9.16925        3.05057
C          8.83785        8.18509        4.08396
N          8.67817        7.39495        4.91445
C         10.96256       10.28531        4.32547
F         11.57474       11.47906        4.48776
F         10.25152       10.08621        5.46716
F         11.92308        9.32853        4.29449
C         10.98972       12.02904        1.51864
S         12.68467       12.03221        1.91868
C         12.93095       13.45461        1.08646
C         11.82147       13.91276        0.44433
C         10.68729       13.10757        0.67939
C         12.19213       15.10398       -0.28080
O         11.50126       15.79340       -1.00415
C         13.66551       15.28993        0.06155
C         14.04771       14.27273        0.86639
C         14.48208       16.35073       -0.47050
C         15.54572       16.86456        0.17086
C         16.32052       17.91275       -0.40210
O         16.04451       18.44571       -1.63646
C         16.91017       19.46512       -1.92677
C         17.78286       19.57427       -0.86085
C         17.43429       18.57962        0.10348
C         18.13159       18.34904        1.39204
F         18.00511       17.07445        1.84414
F         19.46499       18.59188        1.29548
F         17.65698       19.16064        2.37065
C         16.85196       20.23143       -3.11905
C         16.36377       19.70138       -4.24689
H         -1.77558        5.63773       -2.27345
H         -2.31760        1.75637       -1.11275
H          0.23407        2.36103       -0.24493
H          1.71020        4.67016       -0.45856
H          0.21134        6.91580       -1.93072
H          2.34349        8.00931       -1.91818
H          2.81443        6.34152        0.63417
H          3.50509        9.73826       -0.82327
H          9.70881       13.30676        0.25502
H         15.03520       14.10429        1.27313
H         14.17966       16.73623       -1.44485
H         15.82703       16.49377        1.15115
H         18.59947       20.28136       -0.78728
H         17.21622       21.25375       -3.10505
H         16.01266       18.67395       -4.29442
H         16.31673       20.28613       -5.15906
