91

C         -1.46494       -1.59295       -1.78883
S         -1.81882       -2.60232       -0.44701
C         -3.31642       -3.13222       -1.12774
C         -3.53493       -2.52362       -2.34808
C         -2.46259       -1.64779       -2.72793
C         -2.40631       -0.93790       -3.92512
C         -3.55231       -1.15663       -4.73648
C         -3.61892       -0.44197       -6.06663
C         -4.64304       -2.02806       -4.34989
O         -5.66971       -2.10152       -5.27187
C         -6.93481       -2.52139       -4.77098
C         -4.66047       -2.76982       -3.14457
C         -4.04658       -4.14947       -0.45971
C         -5.09738       -3.87650        0.33852
C         -5.89828       -4.90894        0.95265
S         -5.67456       -6.51821        0.41362
C         -6.86171       -7.25994        1.40733
C         -7.37897       -6.29165        2.26397
C         -6.89620       -4.91247        1.92547
C         -7.42160       -3.76523        2.57646
C         -7.11067       -2.41517        2.23775
N         -6.90512       -1.30621        1.97165
C         -8.37451       -4.03224        3.58346
C         -8.78605       -5.33962        3.94273
C         -8.32222       -6.51175        3.30170
C         -8.81231       -7.78512        3.72688
N         -9.29208       -8.76918        4.09863
C         -7.15523       -8.65549        1.15757
C         -6.31335       -9.44177        0.45442
C         -6.58328      -10.76783        0.00822
S         -6.35349      -11.02618       -1.68303
C         -6.57207      -12.73662       -1.61459
C         -7.03763      -13.07716       -0.34312
C         -6.93981      -11.95355        0.62044
C         -7.15516      -12.12816        2.01018
C         -6.83689      -11.15985        3.00818
N         -6.52525      -10.41454        3.84184
C         -7.57900      -13.42027        2.38243
C         -7.72794      -14.48538        1.45828
C         -7.43632      -14.37022        0.08067
C         -7.58777      -15.50013       -0.77456
N         -7.74630      -16.43469       -1.43689
C         -6.28054      -13.52516       -2.78712
C         -5.26982      -13.24942       -3.63389
C         -4.83803      -14.10930       -4.72674
C         -4.29950      -15.34989       -4.57628
O         -3.82998      -16.10392       -5.65909
C         -3.95114      -15.51782       -6.87162
C         -4.48944      -14.22324       -7.02950
C         -4.51708      -13.81215       -8.33711
S         -3.88812      -15.03423       -9.37673
C         -3.57935      -16.09712       -8.05786
O         -4.92482      -13.48656       -5.98046
C         -4.15092      -16.00905       -3.30089
C         -2.99668      -16.47366       -2.79748
C         -2.92379      -17.07206       -1.46522
N         -3.87184      -16.73094       -0.56952
C         -3.81390      -17.35095        0.61831
C         -2.86627      -18.29270        0.93217
C         -1.92556      -18.55233       -0.04390
N         -1.92396      -17.93648       -1.24348
C         -0.89223      -19.56771        0.19877
C          0.27523      -19.62242       -0.45554
H         -0.54317       -1.02889       -1.80879
H         -1.58935       -0.29123       -4.21694
H         -2.77839        0.24902       -6.19140
H         -4.53906        0.14680       -6.13668
H         -3.58214       -1.16714       -6.88570
H         -7.69176       -2.27191       -5.52070
H         -7.20118       -1.99703       -3.84636
H         -6.95136       -3.60634       -4.62722
H         -5.44817       -3.45437       -2.86791
H         -3.70874       -5.15716       -0.67958
H         -5.34358       -2.83337        0.50129
H         -8.82832       -3.19294        4.11681
H         -9.51582       -5.43408        4.75196
H         -8.11134       -9.04808        1.48953
H         -5.36609       -9.05572        0.08609
H         -7.78084      -13.62452        3.43659
H         -8.05936      -15.45057        1.84902
H         -6.85403      -14.42947       -2.96495
H         -4.65865      -12.35565       -3.53066
H         -4.87024      -12.87475       -8.74158
H         -3.15018      -17.07504       -8.22409
H         -5.06342      -16.10305       -2.71668
H         -2.06563      -16.42915       -3.35056
H         -4.58231      -17.06541        1.32995
H         -2.86157      -18.78611        1.89408
H         -1.11127      -20.31093        0.95980
H          0.53849      -18.89158       -1.21503
H          0.99795      -20.40116       -0.23679
