87

C          0.64109        1.71884        5.09972
C         -0.63957        1.82856        4.52240
C         -0.91055        1.27728        3.26479
C          0.12417        0.62514        2.61614
C          1.39357        0.53119        3.18178
C          1.67720        1.06791        4.42444
C          2.30279       -0.20671        2.29530
O          3.49045       -0.36768        2.47656
C          1.45641       -0.65473        1.15827
C          0.09461       -0.07615        1.32567
O         -0.85467       -0.17444        0.57714
C          1.73778       -1.48846        0.14965
C          2.98011       -2.16348        0.02109
C          4.11082       -1.81417       -0.72157
C          5.11637       -2.80288       -0.62195
C          4.71156       -3.83944        0.18591
S          3.18335       -3.69961        0.81305
C          5.75215       -4.78095        0.27759
C          6.82462       -4.34966       -0.46770
C          6.47850       -3.07266       -1.09992
C          7.22904       -2.32650       -1.93348
C          8.54952       -2.70252       -2.30399
N          9.63550       -2.98434       -2.60123
C          6.73432       -1.11620       -2.48908
N          6.32583       -0.12872       -2.94769
C          7.90554       -5.25835       -0.38095
C          7.59265       -6.33851        0.45099
S          5.96290       -6.22323        1.05696
C          8.42984       -7.46384        0.80846
C          9.43889       -8.06150        0.08416
C         10.02984       -9.19471        0.76713
N         11.02933       -9.95524        0.23432
C         11.40344       -9.50928       -1.00589
C         12.49002      -10.28096       -1.65517
O         13.00683      -11.26240       -1.13676
C         12.95347       -9.84048       -2.98504
C         12.40873       -8.79646       -3.60986
C         11.30936       -8.01925       -3.00864
O         10.82609       -7.08414       -3.63389
C         10.83234       -8.41563       -1.66289
N          9.82278       -7.64489       -1.15525
C          9.45714       -9.43368        1.99941
S          8.26225       -8.24460        2.33119
C          9.75588      -10.47324        2.95994
C         10.98290      -11.10228        3.17917
C         10.88271      -12.06992        4.20071
C          9.60303      -12.14418        4.70435
S          8.51423      -11.11399        4.00445
C          9.55446      -13.14074        5.69727
C         10.80166      -13.70623        5.80574
C         11.72546      -13.04726        4.88777
C         13.04447      -13.27439        4.73566
C         13.73403      -14.26363        5.49079
N         14.30940      -15.07768        6.08558
C         13.82866      -12.52654        3.81742
N         14.48212      -11.91164        3.08208
C         10.80764      -14.75545        6.73645
C          9.57661      -14.88349        7.38306
S          8.40329      -13.77999        6.70866
C          9.16770      -15.77229        8.41737
C          9.97432      -16.19103        9.40176
C          9.51584      -17.20804       10.38972
O          8.41979      -17.71869       10.48373
C         10.68849      -17.49562       11.22576
C         10.80479      -18.39866       12.26473
C         12.05138      -18.50119       12.89358
C         13.14412      -17.71455       12.47611
C         13.00748      -16.80394       11.42859
C         11.76687      -16.71345       10.82605
C         11.38043      -15.82671        9.73221
O         12.08918      -14.95667        9.27424
H          0.82483        2.14384        6.08537
H         -1.42839        2.34427        5.06840
H         -1.89872        1.35073        2.82003
H          2.66695        0.97367        4.86058
H          0.96702       -1.73229       -0.57841
H          4.16814       -0.89160       -1.28565
H          8.86973       -5.15512       -0.86722
H         13.75887      -10.41676       -3.42794
H         12.74445       -8.47350       -4.58967
H         11.87679      -10.85633        2.61736
H         11.65967      -15.38064        6.96827
H          8.14104      -16.13748        8.38839
H          9.96103      -19.00502       12.57913
H         12.18362      -19.20069       13.71704
H         14.10572      -17.81626       12.97604
H         13.83848      -16.19045       11.09222
