95

C         -4.89668       -2.66757        1.88010
C         -5.29440       -3.79992        1.25878
C         -4.82144       -5.09073        1.63939
N         -4.43606       -6.13919        1.95312
C         -6.15216       -3.77864        0.12188
N         -6.85205       -3.75859       -0.80170
C         -3.89388       -2.55477        2.97876
C         -3.39668       -1.24888        2.97873
C         -2.48856       -0.76125        3.90807
C         -2.06561       -1.63956        4.92941
C         -2.55325       -2.95688        4.93451
C         -3.47087       -3.43816        3.96510
S         -1.90013       -3.85251        6.26151
C         -1.03025       -2.51816        6.81912
C         -1.19532       -1.40005        6.04732
Br         0.05168       -2.56370        8.34758
C         -4.05291       -0.44591        1.93762
O         -3.67097        0.63139        1.53518
C         -5.21472       -1.27824        1.48130
C         -6.38160       -0.76412        1.05578
C         -6.61462        0.63857        0.95922
C         -7.13611        1.51150        1.88822
O         -7.53588        1.11221        3.12483
C         -8.43451        2.08840        3.68449
C         -7.86340        3.50821        3.55809
C         -8.81035        4.53543        4.16579
O         -7.71148        3.87224        2.17316
C         -7.22049        2.85483        1.42046
C         -6.82397        3.01586        0.09967
S         -6.31828        1.46780       -0.51005
C         -6.76028        4.22722       -0.77856
C         -7.01892        4.23297       -2.17420
C         -6.91994        5.42273       -2.99638
N         -7.19973        5.32745       -4.32225
C         -7.58195        4.14611       -4.84111
C         -7.65001        3.02437       -4.07170
N         -7.38801        3.06833       -2.75478
C         -6.55492        6.69361       -2.47233
C         -6.31855        6.73717       -1.06690
C         -6.41463        5.48993       -0.21238
N         -6.12113        5.74770        1.07538
S         -5.81481        7.35249        1.22884
N         -6.02709        7.82329       -0.32920
C         -6.42896        7.94222       -3.28870
C         -5.59821        9.05037       -3.19131
O         -4.70944        9.22492       -2.18299
C         -3.81402       10.31051       -2.44226
C         -4.49938       11.53398       -3.07262
C         -5.51078       12.21591       -2.14789
O         -5.13140       11.19365       -4.32135
C         -5.78224       10.00368       -4.23805
C         -6.68137        9.59883       -5.20007
S         -7.52832        8.22404       -4.59851
C         -7.06934       10.25074       -6.41234
C         -7.43546        9.63040       -7.54584
C         -7.51407        8.22603       -7.95574
C         -6.54362        7.28633       -7.81994
C         -6.68054        5.96253       -8.31985
N         -6.81430        4.87896       -8.71422
C         -5.26482        7.59662       -7.25759
N         -4.21186        7.83440       -6.85162
C         -8.71565        8.11071       -8.82403
C         -9.06352        9.39994       -9.24477
C         -8.23765       10.41030       -8.54813
O         -8.27603       11.60928       -8.70927
C        -10.10652        9.66112      -10.12463
C        -10.86681        8.56061      -10.58860
C        -10.55265        7.27457      -10.11866
C         -9.48125        7.02793       -9.22729
S        -11.63129        6.09064      -10.76716
C        -12.46022        7.24923      -11.67017
C        -11.97931        8.51991      -11.49925
Br       -13.90038        6.83060      -12.79223
H         -2.15996        0.27373        3.87005
H         -3.83931       -4.45499        4.04824
H         -0.72670       -0.44570        6.25662
H         -7.24639       -1.39524        0.87454
H         -8.60217        1.82608        4.73412
H         -9.39461        2.00693        3.15770
H         -6.88431        3.57144        4.05468
H         -9.77624        4.51809        3.64808
H         -8.41036        5.54804        4.03999
H         -8.97929        4.35458        5.23098
H         -7.83852        4.13519       -5.89330
H         -7.91833        2.05719       -4.47921
H         -3.02862        9.93006       -3.10561
H         -3.34349       10.58746       -1.49225
H         -3.72154       12.26927       -3.31141
H         -6.35575       11.56319       -1.90581
H         -5.93374       13.09928       -2.63995
H         -5.04075       12.53285       -1.21191
H         -7.13367       11.33777       -6.36139
H        -10.33725       10.67942      -10.42658
H         -9.30066        6.01519       -8.88164
H        -12.39046        9.39149      -11.99391
