93

C         -1.56640       -0.30152       -2.05891
C         -1.76899       -1.11679       -3.12132
C         -0.73752       -1.92989       -3.66946
N          0.10777       -2.58912       -4.11295
C         -3.04865       -1.27566       -3.73062
N         -4.09049       -1.39165       -4.22675
C         -0.30504       -0.17053       -1.26157
C         -0.63831        0.37036       -0.01838
C          0.27552        0.69354        0.97496
C          1.63710        0.45277        0.70684
C          1.99337       -0.10567       -0.53158
C          1.03555       -0.42085       -1.53576
S          3.70707       -0.32484       -0.63128
C          3.94854        0.32447        0.90897
C          2.78906        0.71002        1.52375
Br         5.63653        0.50333        1.70123
C         -2.07727        0.61920        0.06842
O         -2.68177        0.82237        1.09969
C         -2.59168        0.49496       -1.33693
C         -3.65482        1.15556       -1.83341
C         -4.47012        2.06580       -1.09030
C         -4.14174        2.95394       -0.06150
C         -5.28037        3.57014        0.48447
C         -6.41657        3.22114       -0.20486
S         -6.16278        2.21977       -1.50526
C         -7.51759        3.87055        0.38751
C         -7.07383        4.64028        1.44026
C         -5.62481        4.47332        1.58136
C         -4.80239        5.00319        2.50705
C         -3.39728        4.75385        2.49325
N         -2.25264        4.57791        2.47565
C         -5.29493        5.83017        3.55423
N         -5.70665        6.49128        4.41537
C         -8.12691        5.38986        2.01210
C         -9.33175        5.13831        1.35449
S         -9.15245        3.92730        0.12442
C        -10.63315        5.88924        1.57978
C        -11.89239        5.32928        1.43401
C        -12.22780        3.95860        1.19487
N        -12.52429        2.85087        1.01708
S        -13.13240        6.48563        1.63576
C        -12.02798        7.76483        1.92867
C        -10.71998        7.29817        1.90045
C         -9.58123        8.16078        2.05815
N         -8.64615        8.83581        2.18696
C        -12.53898        9.10525        2.15257
C        -13.68314        9.68493        1.59169
C        -13.87674       10.99889        2.06701
C        -12.88958       11.36139        2.95450
S        -11.75545       10.19603        3.25685
C        -13.13996       12.66793        3.41199
C        -14.31595       13.11263        2.85328
C        -14.80806       12.11551        1.90491
C        -15.79483       12.26080        0.99870
C        -16.10620       11.23471        0.06676
N        -16.35706       10.38823       -0.68666
C        -16.53682       13.47054        0.89099
N        -17.14306       14.45806        0.81477
C        -14.65393       14.40215        3.30938
C        -13.59836       14.95016        4.03299
S        -12.35362       13.77993        4.35996
C        -13.47910       16.24400        4.57801
C        -12.95866       17.32183        3.97480
C        -12.33056       17.71286        2.68806
C        -12.23954       17.05693        1.50166
C        -11.50814       17.55997        0.38419
N        -10.91478       17.92885       -0.54432
C        -12.84929       15.82613        1.14946
N        -13.29807       14.87062        0.66552
C        -11.81115       19.11934        2.89528
C        -12.13316       19.54589        4.18255
C        -12.85805       18.50398        4.90382
O        -13.27459       18.60569        6.04066
C        -11.82996       20.80347        4.70295
C        -11.17130       21.72313        3.85957
C        -10.85548       21.32001        2.55710
C        -11.16226       20.02800        2.06295
S        -10.07907       22.58547        1.67584
C        -10.16096       23.63372        2.99407
C        -10.75000       23.07597        4.09786
Br        -9.51068       25.38874        2.94090
H         -0.05276        1.14345        1.90845
H          1.38389       -0.82056       -2.48205
H          2.74332        1.15476        2.51120
H         -3.92234        1.05161       -2.88150
H         -3.13161        3.07527        0.30549
H         -8.01792        6.08861        2.83272
H        -14.32433        9.16767        0.88726
H        -15.53753       14.97095        3.04595
H        -13.82248       16.32109        5.61206
H        -12.10931       21.06466        5.72039
H        -10.88668       19.82163        1.03883
H        -10.88921       23.59902        5.03598
