98

C         -5.29436       -6.53546       -2.47552
C         -6.34428       -5.88585       -3.13027
F         -7.42717       -6.59687       -3.47037
C         -6.27888       -4.52298       -3.45238
F         -7.30180       -3.94055       -4.09060
C         -5.15357       -3.76775       -3.15184
C         -4.11852       -4.42669       -2.51522
C         -4.17403       -5.79059       -2.14678
C         -2.89557       -6.12781       -1.47489
C         -2.72940       -7.04082       -0.48834
C         -3.75025       -7.97163       -0.13225
N         -4.58971       -8.72614        0.13499
C         -1.58800       -7.02755        0.36714
N         -0.70772       -6.99684        1.12504
C         -1.96030       -5.06912       -1.86539
C         -2.77436       -3.87832       -2.25385
O         -2.40682       -2.73652       -2.42102
C         -0.68722       -5.10078       -2.28108
C          0.09410       -6.29165       -2.46236
C          1.26918       -6.50831       -1.83602
C          1.76645       -7.81119       -2.26190
C          0.80608       -8.31824       -3.21897
C         -0.18477       -7.42926       -3.34114
F          0.89306       -9.48255       -3.87419
C          2.88836       -8.39723       -1.83022
C          3.41405       -9.68410       -2.25601
C          4.56213       -9.89650       -1.58070
C          4.80947       -8.76540       -0.69317
C          3.82043       -7.88327       -0.84819
F          3.70982       -6.71931       -0.19721
C          5.37304      -11.06344       -1.75495
C          5.69694      -11.86320       -0.73126
C          6.49460      -13.00770       -0.94097
N          6.76388      -13.79141        0.15851
C          7.53758      -14.84094       -0.25525
C          8.19079      -15.99975        0.21253
C          8.81788      -16.52326       -0.90591
N          8.52175      -15.74920       -2.00355
C          7.75098      -14.70983       -1.58326
C          7.10005      -13.55537       -2.05963
C          9.61818      -17.67360       -1.07496
C         10.58651      -17.73242       -2.00076
C         11.41829      -18.88832       -2.17475
C         12.68843      -18.82452       -2.63289
C         13.21011      -20.18420       -2.67057
C         12.12365      -21.04766       -2.25774
C         11.06204      -20.29088       -1.97423
F         12.16839      -22.38314       -2.17738
C         14.45718      -20.54529       -2.99544
C         14.97974      -21.89991       -2.98996
C         16.28411      -21.83912       -3.32816
C         16.63835      -20.44525       -3.58115
C         15.55375      -19.68912       -3.38854
F         15.49211      -18.36070       -3.54415
C         17.13945      -22.98767       -3.41085
C         16.90925      -24.00251       -4.25673
C         17.77018      -25.15307       -4.34131
C         19.06906      -25.15509       -4.66691
C         19.85297      -26.38614       -4.33790
O         19.43990      -27.50418       -4.11627
C         21.25103      -25.94191       -4.24328
C         21.36215      -24.57540       -4.57726
C         22.59713      -23.95800       -4.43535
C         23.68686      -24.73122       -4.01924
C         23.55084      -26.09380       -3.73078
C         22.31798      -26.72100       -3.82720
F         24.61734      -26.80460       -3.34248
F         24.88478      -24.14360       -3.89831
C         20.02659      -24.10613       -5.05245
C         19.81072      -23.06177       -5.89098
C         18.57736      -22.86578       -6.58240
N         17.60786      -22.69607       -7.19780
C         20.83528      -22.13655       -6.24932
N         21.66943      -21.38219       -6.52736
H         -5.38531       -7.59700       -2.27462
H         -5.07876       -2.72502       -3.43674
H         -0.22178       -4.18955       -2.66164
H          1.75291       -5.84879       -1.13247
H         -1.03379       -7.52023       -3.99876
H          2.96105      -10.35075       -2.97359
H          5.65523       -8.66899       -0.03315
H          5.70422      -11.26471       -2.77016
H          5.32886      -11.64295        0.26832
H          6.46689      -13.65830        1.11673
H          8.21999      -16.39345        1.21974
H          8.79914      -15.88622       -2.96686
H          7.07910      -13.18198       -3.07358
H          9.45554      -18.50013       -0.38772
H         10.81361      -16.88346       -2.64106
H         13.23721      -17.93091       -2.88774
H         10.09511      -20.64232       -1.65488
H         14.42333      -22.79024       -2.73985
H         17.60646      -20.09275       -3.89391
H         17.99078      -22.99370       -2.73431
H         16.03497      -24.00348       -4.90770
H         17.28971      -26.08431       -4.03386
H         22.76956      -22.90495       -4.62512
H         22.19744      -27.76935       -3.57875
