106

C          5.86095       -2.14786        4.26229
C          5.30849       -2.50886        5.49672
F          5.91789       -2.10384        6.61935
C          4.15345       -3.29460        5.57959
F          3.65492       -3.62496        6.77820
C          3.53207       -3.76663        4.43213
C          4.10477       -3.41624        3.21878
C          5.23718       -2.58703        3.10206
C          5.54780       -2.42252        1.65252
C          6.25202       -1.41200        1.08867
C          6.86943       -0.38997        1.86231
N          7.37221        0.43601        2.50539
C          6.37377       -1.25691       -0.32425
N          6.47294       -1.14041       -1.47388
C          4.78260       -3.47256        0.94943
C          3.70203       -3.92057        1.89704
O          2.69425       -4.55304        1.66664
C          5.09367       -4.09502       -0.19946
C          4.43520       -5.26040       -0.64425
S          4.90303       -6.84244       -0.16620
C          3.70363       -7.61366       -1.15241
C          3.01236       -6.62223       -1.78012
C          3.41470       -5.30835       -1.54746
S          2.54943       -4.00725       -2.43656
C          1.58434       -5.30557       -3.12906
C          0.57739       -5.00859       -4.13419
O          0.13890       -5.82256       -4.93881
O          0.19143       -3.70321       -4.06686
C         -0.67682       -3.25729       -5.11264
C          0.15918       -2.88053       -6.32106
C          1.91207       -6.59573       -2.68062
C          3.61970       -9.03436       -1.17067
C          3.14094       -9.66798       -2.24766
C          2.95794      -11.06851       -2.38934
O          3.10578      -11.58717       -3.64217
C          2.82492      -12.91963       -3.67520
C          2.50552      -13.29036       -2.37041
C          2.56185      -12.10528       -1.54074
C          2.23418      -12.00118       -0.09644
F          2.33184      -10.75561        0.42740
F          0.95185      -12.38126        0.15566
F          3.04212      -12.78849        0.66155
O          2.27072      -14.59438       -2.07089
C          1.33363      -14.87013       -1.04444
C          2.88118      -13.59154       -4.92945
C          2.60969      -14.89039       -5.11179
C          2.65966      -15.43570       -6.41356
S          1.31507      -15.48448       -7.48322
C          2.20106      -16.28910       -8.74217
C          3.46890      -16.45362       -8.27998
C          3.75491      -16.01400       -6.98933
S          5.43075      -16.28321       -6.38071
C          5.73907      -17.01698       -7.94838
C          7.07921      -17.51063       -8.21310
O          8.02533      -17.52304       -7.43562
O          7.16388      -17.86055       -9.53202
C          8.47436      -17.75871      -10.09686
C          8.70789      -16.30181      -10.46107
C          4.65141      -17.00037       -8.83844
C          1.53807      -16.64338       -9.94854
C          1.90271      -17.72204      -10.65843
C          1.26037      -18.13128      -11.87958
C         -0.02298      -18.47032      -12.06833
C         -0.48371      -18.55741      -13.48852
O          0.18848      -18.64630      -14.49397
C         -1.94530      -18.43355      -13.43558
C         -2.39142      -18.35430      -12.10026
C         -3.74832      -18.17266      -11.87166
C         -4.61433      -18.12297      -12.97033
C         -4.14010      -18.22882      -14.28178
C         -2.78554      -18.37287      -14.53572
F         -4.99832      -18.18964      -15.30893
F         -5.92805      -17.98218      -12.74876
C         -1.21172      -18.55815      -11.19941
C         -1.26866      -18.97956       -9.91768
C         -0.14709      -19.53878       -9.23453
N          0.72576      -20.05514       -8.66996
C         -2.48142      -19.01389       -9.16517
N         -3.46842      -19.02199       -8.55544
H          6.77353       -1.56256        4.26779
H          2.65850       -4.40665        4.48977
H          5.94477       -3.79532       -0.80145
H         -1.20843       -2.37666       -4.73798
H         -1.43169       -4.01305       -5.35682
H          0.86629       -2.08590       -6.05956
H         -0.47346       -2.53750       -7.14277
H          0.75756       -3.72995       -6.66674
H          1.36311       -7.46440       -3.02650
H          3.97592       -9.57148       -0.29742
H          2.91360       -9.10753       -3.14973
H          1.38169      -15.94099       -0.82634
H          0.31419      -14.62868       -1.36252
H          1.58411      -14.38836       -0.10455
H          3.13970      -12.96705       -5.78403
H          2.35313      -15.55485       -4.29655
H          8.49515      -18.37746      -10.99975
H          9.24270      -18.14065       -9.41651
H          7.97437      -15.97928      -11.20879
H          9.71272      -16.14627      -10.85799
H          8.56604      -15.65088       -9.59113
H          4.73727      -17.38337       -9.84826
H          0.69840      -16.03126      -10.26961
H          2.73964      -18.35005      -10.35983
H          1.93363      -18.11574      -12.74101
H         -4.18917      -18.07360      -10.88703
H         -2.40599      -18.43823      -15.54929
