98

C          2.05135       -2.84634        6.04275
C          0.82699       -3.01038        6.59652
C          0.65001       -3.23582        7.99118
N          0.53461       -3.43758        9.12728
C         -0.37005       -2.82220        5.84225
N         -1.34762       -2.61082        5.25140
C          3.32427       -2.61455        6.76920
C          4.12788       -1.77918        5.96775
C          5.37025       -1.31700        6.36531
C          5.84941       -1.74753        7.60400
C          5.09199       -2.64133        8.39313
C          3.82148       -3.07528        7.97714
Cl         5.68684       -3.26964        9.89040
Cl         7.39902       -1.16974        8.10276
C          3.51243       -1.60353        4.63469
O          3.94145       -0.93952        3.71702
C          2.33168       -2.52415        4.64344
C          1.97780       -3.13197        3.50284
C          1.22897       -4.35824        3.40206
C          0.03195       -4.46167        2.78261
C         -0.38455       -5.85843        2.84915
C          0.66019       -6.55867        3.56582
C          1.62137       -5.68688        3.88091
F          0.69445       -7.87462        3.81182
C         -1.48937       -6.39065        2.31656
C         -1.86137       -7.79325        2.37531
C         -3.00407       -7.93779        1.67766
C         -3.42124       -6.64160        1.16453
C         -2.52208       -5.73025        1.54577
F         -2.54436       -4.43297        1.21961
C         -3.64799       -9.20151        1.52002
C         -3.91473       -9.75253        0.32782
C         -4.56860      -11.00204        0.21389
N         -4.93355      -11.67593        1.35662
C         -5.55651      -12.82098        0.99339
C         -6.18045      -13.94931        1.55227
C         -6.59369      -14.68638        0.45826
N         -6.23661      -14.03965       -0.70365
C         -5.59426      -12.88667       -0.35584
C         -4.96413      -11.73890       -0.89311
C         -7.27644      -15.91233        0.33826
C         -7.16740      -16.82717        1.31113
C         -7.83059      -18.09572        1.27340
C         -7.63987      -19.01518        0.30291
C         -8.44714      -20.17899        0.63443
C         -9.13951      -19.85644        1.86422
C         -8.77227      -18.63142        2.25152
F        -10.00593      -20.65077        2.50542
C         -8.48883      -21.31445       -0.06915
C         -9.24898      -22.50645        0.26393
C         -8.99790      -23.42890       -0.68743
C         -8.05691      -22.86368       -1.65418
C         -7.77036      -21.61348       -1.28954
F         -6.95393      -20.78308       -1.94854
C         -9.54575      -24.75488       -0.66825
C         -9.75570      -25.44148       -1.79761
C        -10.31138      -26.76972       -1.80695
C        -10.54050      -27.52040       -2.89276
C        -11.16764      -28.85694       -2.98396
C        -11.18157      -29.81726       -2.02276
C        -11.73311      -31.10644       -2.24265
N        -12.18808      -32.16119       -2.43049
C        -10.58894      -29.64488       -0.73224
N        -10.11175      -29.51368        0.31484
C        -11.62629      -29.00458       -4.40158
C        -11.09070      -27.94983       -5.15684
C        -10.33743      -27.03211       -4.30103
O         -9.70582      -26.08169       -4.71189
C        -11.30335      -27.77770       -6.51681
C        -12.11338      -28.70516       -7.16445
C        -12.68887      -29.76474       -6.43640
C        -12.45004      -29.91267       -5.05446
Cl       -13.72498      -30.92852       -7.18729
Cl       -12.39065      -28.48290       -8.85396
H          5.95445       -0.66881        5.71815
H          3.26998       -3.78003        8.59324
H          2.39589       -2.78357        2.55764
H         -0.52792       -3.66260        2.32129
H          2.55282       -5.94022        4.35999
H         -1.30323       -8.58223        2.85529
H         -4.30063       -6.47363        0.56506
H         -3.89026       -9.68275        2.46059
H         -3.62571       -9.24545       -0.59067
H         -4.80816      -11.41504        2.32431
H         -6.32011      -14.18208        2.59860
H         -6.38945      -14.33241       -1.65976
H         -4.82936      -11.47681       -1.93333
H         -7.89127      -16.09135       -0.53962
H         -6.54828      -16.64972        2.18722
H         -6.98561      -18.92833       -0.54983
H         -9.11685      -18.10608        3.12638
H         -9.89938      -22.61838        1.11727
H         -7.66918      -23.37585       -2.51968
H         -9.78810      -25.17826        0.30350
H         -9.50574      -24.97629       -2.74719
H        -10.57246      -27.12766       -0.81544
H        -10.86369      -26.93373       -7.04312
H        -12.93787      -30.73053       -4.53548
