92

C         -0.56656       -3.46021        0.62371
C         -1.42210       -2.88139       -0.33240
C         -0.84462       -2.13165       -1.37202
C          0.54432       -1.96277       -1.44819
C          1.36592       -2.55012       -0.48046
C          0.81946       -3.30290        0.55084
N          2.74982       -2.36539       -0.54934
C          3.36971       -1.61954       -1.51973
O          4.58873       -1.48096       -1.51812
C          2.49669       -0.99877       -2.55753
C          1.16360       -1.17413       -2.51533
C          3.09859       -0.22082       -3.58252
N          3.52888        0.42721       -4.44438
C         -2.88915       -3.03266       -0.24606
C         -3.89545       -2.15440       -0.66442
C         -5.18141       -2.67036       -0.38037
C         -5.10562       -3.90775        0.21696
S         -3.56900       -4.48315        0.44210
C         -6.40838       -4.37132        0.49364
C         -7.31586       -3.42534        0.07439
C         -6.59159       -2.29342       -0.51798
C         -7.09961       -1.17468       -1.07201
C         -8.50108       -0.95285       -1.15192
N         -9.64642       -0.77748       -1.22221
C         -6.25949       -0.16378       -1.61794
N         -5.56408        0.64967       -2.06473
C         -8.64175       -3.83134        0.35260
C         -8.67962       -5.08838        0.97199
S         -7.07014       -5.73163        1.18151
C         -9.81256       -5.84836        1.41746
C        -10.37607       -6.71541        0.55359
C        -11.56596       -7.45501        0.88962
C        -12.19071       -7.38525        2.21711
C        -11.75551       -6.60720        3.20721
S        -10.38299       -5.53889        3.05050
C        -13.30311       -8.25410        2.18456
C        -13.40197       -8.82697        0.93945
C        -14.51432       -9.67274        0.79768
C        -15.22109       -9.72048        1.99207
S        -14.51330       -8.73009        3.23303
C        -12.30958       -8.32134        0.14240
C        -12.05410       -8.73725       -1.21192
C        -11.97786       -7.89573       -2.25486
C        -11.70906       -8.36197       -3.57427
C        -11.47250       -9.65708       -4.04652
C        -11.27524       -9.67714       -5.43884
C        -11.34873       -8.41349       -5.97293
S        -11.64249       -7.20226       -4.87897
C        -11.15698       -8.50130       -7.36427
C        -10.96069       -9.81773       -7.71094
C        -11.02421      -10.64300       -6.50755
C        -10.88919      -11.97854       -6.40782
C        -10.65472      -12.79420       -7.54516
N        -10.46556      -13.45049       -8.48345
C        -10.97788      -12.64381       -5.15594
N        -11.05242      -13.17817       -4.12786
C        -10.76491       -9.96721       -9.09858
C        -10.81872       -8.73772       -9.76120
S        -11.11546       -7.43996       -8.62664
C        -10.65303       -8.44390      -11.20424
C        -10.43455       -9.48212      -12.12914
C        -10.24218       -9.21703      -13.49062
C        -10.26297       -7.90267      -13.94203
C        -10.49237       -6.85245      -13.05360
C        -10.68951       -7.12723      -11.69899
C        -10.50304       -5.47804      -13.55222
C        -10.26995       -5.22134      -14.85050
C        -10.01508       -6.34085      -15.80232
O         -9.79155       -6.14874      -16.99314
N        -10.03883       -7.61469      -15.29104
C        -10.25538       -3.88815      -15.33775
N        -10.25351       -2.77458      -15.66525
H         -0.96671       -4.03769        1.45484
H         -1.47823       -1.67873       -2.13182
H          1.44842       -3.76377        1.30735
H          3.35792       -2.77717        0.14733
H          0.51364       -0.73066       -3.26424
H         -3.67757       -1.19689       -1.12333
H         -9.54271       -3.26863        0.13851
H         -9.95212       -6.87209       -0.43343
H        -12.26981       -6.60131        4.16356
H        -14.80720      -10.20783       -0.09684
H        -16.12371      -10.27677        2.20803
H        -11.93898       -9.81101       -1.33140
H        -12.13114       -6.82814       -2.10197
H        -11.46257      -10.52248       -3.39756
H        -10.58950      -10.90607       -9.60854
H        -10.40173      -10.52176      -11.81088
H        -10.06813      -10.04230      -14.17582
H        -10.86048       -6.28731      -11.03078
H        -10.69341       -4.67819      -12.84116
H         -9.86028       -8.35976      -15.95214
