98

C         -7.28235       11.37924        3.12342
C         -7.90251       12.45555        2.58074
C         -8.02935       13.70008        3.26391
N         -8.13471       14.71332        3.81891
C         -8.42577       12.45246        1.25472
N         -8.86118       12.44490        0.17916
C         -6.59279       11.33350        4.45208
C         -5.75018       10.22153        4.46773
C         -4.97023        9.83863        5.55059
C         -5.03449       10.62932        6.71416
C         -5.87301       11.75476        6.71502
C         -6.66772       12.12119        5.59553
S         -5.79321       12.58001        8.23140
C         -4.69717       11.45980        8.85800
C         -4.36656       10.46841        7.97510
Br        -4.00582       11.56402       10.59530
C         -5.83771        9.47927        3.20735
O         -5.06672        8.60837        2.86696
C         -7.00036       10.07637        2.46474
C         -7.69990        9.42041        1.52098
C         -7.40774        8.08875        1.10735
C         -7.89266        6.89443        1.61529
C         -7.37212        5.73430        0.94847
C         -7.52968        4.34658        1.14247
C         -6.95209        3.41941        0.25591
C         -6.19470        3.96085       -0.77766
N         -5.96986        5.27156       -0.97435
C         -6.56637        6.11479       -0.11275
S         -6.39153        7.80009       -0.24781
S         -5.54176        2.78772       -1.82937
C         -6.25353        1.53941       -0.93669
C         -6.95493        1.99958        0.14195
F         -7.58143        1.20920        0.97213
F         -6.14494        0.27301       -1.24296
C         -8.29221        3.86857        2.30773
C         -7.64376        3.63677        3.46620
C         -8.35112        3.20549        4.64404
C         -9.81075        3.03009        4.66619
C        -10.60336        3.20855        3.60984
S        -10.01188        3.68662        2.03951
C        -10.14842        2.64864        5.98277
C         -9.00923        2.57902        6.74714
C         -9.24500        2.20187        8.07822
C        -10.60488        2.00449        8.27294
S        -11.53822        2.27680        6.83139
C         -7.89555        2.92733        5.89939
C         -6.52395        2.96657        6.33142
C         -6.09067        3.74860        7.33181
C         -4.72319        3.75391        7.72042
C         -3.58543        3.51204        6.96615
C         -2.36154        3.69488        7.68564
C         -0.99902        3.63043        7.33522
C         -0.00430        3.62190        8.33890
C         -0.44897        3.86903        9.63483
N         -1.72374        4.09248        9.98768
C         -2.64029        3.96220        9.01646
S         -4.29636        4.12702        9.34106
S          0.78572        3.84929       10.80853
C          1.93309        3.43366        9.63957
C          1.40021        3.36899        8.38053
F          2.10726        3.05286        7.32861
F          3.18938        3.19567        9.91312
C         -0.62472        3.41082        5.92992
C         -0.34333        4.33669        4.99518
C         -0.28536        5.80325        5.00355
C         -1.26274        6.68552        5.32891
C         -1.09218        8.10304        5.27671
N         -0.96185        9.25128        5.26539
C         -2.61974        6.29839        5.50782
N         -3.76150        6.10179        5.54682
C          0.79478        6.18607        4.04328
C          1.02234        5.09370        3.20003
C          0.34045        3.89248        3.72745
O          0.37081        2.77665        3.25221
C          1.76965        5.17698        2.02937
C          2.30320        6.44282        1.68034
C          2.15758        7.50791        2.58270
C          1.44468        7.38726        3.79702
S          2.90957        8.94469        1.98996
C          3.32204        8.19943        0.53469
C          2.98509        6.87220        0.48799
Br         4.15468        9.10940       -0.87481
H         -4.35507        8.94633        5.49888
H         -7.31269       12.98836        5.68140
H         -3.68186        9.65925        8.19996
H         -8.58433        9.85312        1.06549
H         -8.59404        6.83327        2.43948
H         -6.57180        3.79283        3.55046
H        -11.67401        3.05326        3.69575
H         -8.49826        2.08042        8.85293
H        -11.10780        1.71338        9.18519
H         -5.85199        2.29905        5.79800
H         -6.78482        4.40111        7.85877
H         -3.63209        3.27542        5.90943
H         -0.46340        2.35751        5.68678
H          1.88558        4.31469        1.37871
H          1.36719        8.24917        4.45015
H          3.17844        6.23325       -0.36515
