123

C         -0.28378       10.93554        7.32834
C         -0.06389       10.38741        8.53291
C          1.05363       10.70922        9.32803
N          1.96877       10.99504        9.99112
C         -0.99102        9.46988        9.12850
N         -1.74248        8.71521        9.60346
C          0.52699       12.01464        6.66974
C         -0.27739       12.64080        5.71358
C          0.15273       13.65244        4.86543
C          1.49368       14.07432        4.98314
C          2.31028       13.46708        5.95132
C          1.84717       12.42858        6.80498
S          3.89980       14.14947        5.92883
C          3.50911       15.18855        4.65681
C          2.21489       15.06308        4.23052
Br         4.72850       16.39308        3.90070
C         -1.61159       12.03170        5.68601
O         -2.60187       12.53320        5.19899
C         -1.47604       10.75195        6.45379
C         -2.16566        9.61984        6.22901
C         -3.16790        9.43125        5.23036
C         -3.32198        9.98565        3.95676
C         -4.49148        9.52799        3.32580
C         -5.15109        8.60072        4.09555
S         -4.42779        8.25619        5.54634
C         -6.33932        8.23268        3.43759
C         -6.43302        8.93858        2.25902
C         -5.24801        9.77853        2.10142
C         -4.92970       10.59575        1.08134
C         -3.71504       11.33337        1.06136
N         -2.71207       11.92131        1.02860
C         -5.78084       10.74575       -0.04824
N         -6.47672       10.86379       -0.96874
C         -7.65456        8.69397        1.60505
C         -8.45208        7.82674        2.35326
S         -7.63151        7.25193        3.77184
C         -9.82110        7.45924        2.09355
C        -10.78972        7.09928        3.03253
C        -12.04943        6.95472        2.42465
C        -11.97748        7.17024        1.06805
S        -10.46675        7.51355        0.48365
C        -13.27200        7.09873        0.52817
C        -14.16412        6.83885        1.54317
C        -13.43776        6.70307        2.80392
C        -13.93164        6.42003        4.02467
C        -13.09185        6.32400        5.16775
N        -12.40439        6.24827        6.09961
C        -15.31956        6.19449        4.23270
N        -16.45325        6.01015        4.39758
C        -15.48901        6.83121        1.07001
C        -15.52810        7.10445       -0.29853
S        -13.94316        7.31309       -0.97014
C        -16.69180        7.25976       -1.12687
C        -16.84601        6.93072       -2.44913
C        -18.16240        7.20326       -2.98912
C        -18.71832        6.93746       -4.26753
C        -17.90006        6.17721       -5.26646
C        -16.54897        6.26596       -5.58466
C        -16.12137        5.31872       -6.56647
C        -17.15384        4.52925       -7.01501
S        -18.59667        4.88690       -6.18316
C        -17.13972        3.43325       -8.02862
Cl       -14.48891        5.20185       -7.07047
C        -20.02003        7.39941       -4.58132
C        -20.79511        8.11337       -3.65098
C        -20.27621        8.31009       -2.33660
C        -18.96494        7.84769       -2.03036
S        -18.09419        7.97028       -0.53282
C        -21.09685        9.05023       -1.31045
C        -21.98757       10.11185       -1.44610
C        -22.54086       10.57899       -0.21109
C        -22.00319        9.92948        0.87366
S        -21.10175        8.57761        0.35948
C        -22.14968       10.19519        2.33549
Cl       -23.69869       11.83878       -0.15288
C        -22.03498        8.53386       -4.27021
C        -22.19235        8.17775       -5.59501
S        -20.88356        7.22370       -6.07682
C        -23.22696        8.43881       -6.53770
C        -23.84988        9.62185       -6.68254
C        -24.99674        9.99145       -7.55050
C        -25.28581        9.48517       -8.77404
C        -26.32758       10.00544       -9.59072
N        -27.17563       10.43376      -10.26103
C        -24.52680        8.44223       -9.37637
N        -23.90963        7.58530       -9.86191
C        -25.64704       11.17350       -6.89826
C        -24.80265       11.61769       -5.87346
C        -23.58261       10.82028       -5.82502
O        -22.57080       11.15525       -5.24700
C        -25.08495       12.66942       -5.02071
C        -26.27123       13.36564       -5.22098
C        -27.14923       12.97948       -6.27318
C        -26.83726       11.86382       -7.09240
C        -28.31270       13.73808       -6.47505
C        -28.60524       14.83620       -5.65948
C        -27.74960       15.18782       -4.61927
C        -26.58807       14.45340       -4.39866
H         -0.51594       14.07588        4.12059
H          2.54064       11.98316        7.51028
H          1.78468       15.64144        3.42097
H         -1.93303        8.72674        6.80257
H         -2.63870       10.71427        3.54192
H         -7.99386        9.16454        0.68985
H        -10.58105        7.02251        4.09266
H        -16.38189        6.67154        1.66322
H        -16.03329        6.49091       -3.00839
H        -15.86588        6.96697       -5.12241
H        -17.00095        3.83072       -9.03997
H        -18.07314        2.85943       -8.02200
H        -16.32640        2.73213       -7.81689
H        -22.23687       10.57674       -2.39024
H        -22.79655       11.05465        2.53580
H        -21.17345       10.41429        2.78635
H        -22.57463        9.32692        2.84842
H        -22.78243        9.12985       -3.77556
H        -23.50219        7.59039       -7.15878
H        -24.38550       12.93366       -4.23240
H        -27.54611       11.57882       -7.86387
H        -28.99984       13.49189       -7.28214
H        -29.50409       15.42118       -5.83815
H        -27.97980       16.03892       -3.98333
H        -25.92584       14.74519       -3.58536
