111

C         -4.17668       -2.33147       -0.08741
C         -3.96090       -3.26927        0.85936
C         -3.44967       -4.56927        0.55644
N         -3.03891       -5.62796        0.30153
C         -4.16893       -3.00854        2.24586
N         -4.35544       -2.79077        3.37168
C         -3.86499       -2.43858       -1.54161
C         -3.75523       -1.14644       -2.06236
C         -3.54591       -0.86430       -3.40375
C         -3.47831       -1.95792       -4.29502
C         -3.58690       -3.26044       -3.78057
C         -3.77677       -3.52524       -2.40190
S         -3.48485       -4.43647       -5.04334
C         -3.34239       -3.24488       -6.22927
C         -3.34881       -1.97207       -5.72584
Br        -3.19720       -3.62877       -8.05654
C         -4.05167       -0.14190       -1.02562
O         -3.90941        1.05886       -1.12145
C         -4.59608       -0.92716        0.12413
C         -5.51301       -0.43714        0.97265
C         -6.07230        0.92829        0.94551
C         -7.19884        1.29640        0.19438
C         -7.80139        2.60751        0.30311
N         -8.88910        2.87124       -0.46406
C         -9.34888        1.94744       -1.34724
C         -8.76519        0.71067       -1.43507
N         -7.70701        0.36972       -0.65052
C         -9.20733       -0.29079       -2.35740
N         -9.57111       -1.09548       -3.11133
C        -10.42892        2.37082       -2.19352
N        -11.28918        2.70179       -2.89648
C         -7.29942        3.62534        1.17217
C         -6.08854        3.28905        1.86713
C         -5.47399        1.92085        1.75268
N         -4.35657        1.77423        2.48499
S         -4.05328        3.23367        3.19671
N         -5.36247        4.08977        2.66888
C         -7.90111        4.99114        1.32630
C         -8.50568        5.64934        0.24066
C         -8.93405        6.96923        0.34812
C         -8.81708        7.67544        1.55592
C         -8.29774        7.04449        2.66834
C         -7.85487        5.71338        2.54787
C         -9.23283        9.04637        1.34795
C         -9.61200        9.21582        0.00002
C         -9.55470        7.85860       -0.73670
C         -8.61909        8.01382       -1.97108
C         -8.40417        6.79549       -2.86451
C        -10.98259        7.36290       -1.10481
C        -11.93729        7.12355        0.07195
C         -9.88526       10.48382       -0.51740
C         -9.77903       11.60412        0.32359
C         -9.50209       11.40057        1.69293
C         -9.22044       10.12831        2.20879
C         -9.95197       12.96057       -0.24765
C         -9.36165       14.05707        0.26173
C         -9.37240       15.46384       -0.21755
C         -8.19156       16.19518        0.06377
F         -7.15530       15.59465        0.67539
C         -8.03766       17.54258       -0.25583
C         -9.06797       18.21013       -0.89143
C        -10.24644       17.52384       -1.17876
C        -10.44254       16.16636       -0.81840
C        -11.76658       15.58990       -1.13844
C        -12.91662       16.26906       -0.98940
C        -14.23105       15.78909       -1.35726
C        -14.66719       15.38757       -2.56198
C        -16.03240       14.98766       -2.80609
C        -16.26431       14.59441       -4.06452
C        -15.10101       14.66753       -4.93329
S        -13.72422       15.30950       -4.03168
C        -15.07544       14.32417       -6.23665
C        -16.18681       13.75963       -6.98693
C        -15.95035       13.62476       -8.29873
C        -14.63892       14.07528       -8.68434
S        -13.68245       14.53368       -7.30193
C        -14.19693       14.16703       -9.94090
H         -3.49828        0.16255       -3.75553
H         -3.89877       -4.55316       -2.07493
H         -3.27798       -1.07999       -6.33637
H         -6.00068       -1.07169        1.70737
H         -8.62624        5.15502       -0.71363
H         -8.19185        7.56875        3.61267
H         -7.43302        5.25784        3.44218
H         -7.62897        8.35727       -1.63860
H         -9.01084        8.80851       -2.61786
H         -7.71893        6.07587       -2.40976
H         -9.33709        6.28813       -3.11903
H         -7.93652        7.10954       -3.80388
H        -10.91929        6.41173       -1.64553
H        -11.45745        8.08051       -1.78568
H        -11.55033        6.36860        0.76430
H        -12.89843        6.75010       -0.29784
H        -12.13312        8.04140        0.63355
H        -10.11869       10.60454       -1.57153
H         -9.47013       12.24502        2.37737
H         -8.96075       10.01523        3.25550
H        -10.53682       13.00392       -1.15802
H         -8.70438       13.92633        1.12216
H         -7.11237       18.05279       -0.00808
H         -8.96598       19.25730       -1.16264
H        -11.03338       18.07225       -1.69601
H        -11.78571       14.59425       -1.56120
H        -12.91982       17.25720       -0.53255
H        -14.94610       15.83996       -0.53704
H        -16.79384       15.01803       -2.03894
H        -17.24008       14.28022       -4.40490
H        -17.12329       13.46974       -6.53324
H        -16.66560       13.22912       -9.00634
H        -14.82439       13.89821      -10.78383
H        -13.20052       14.53535      -10.16382
