117

C        -16.90350      -14.63890        4.05991
C        -16.49851      -14.59404        2.76287
C        -17.02236      -15.44998        1.75612
N        -17.44792      -16.14517        0.92248
C        -15.49177      -13.70401        2.28363
N        -14.67081      -12.99656        1.87202
C        -17.90709      -15.59325        4.64099
C        -17.94024      -15.41522        6.02403
C        -18.74742      -16.12726        6.90292
C        -19.58445      -17.11687        6.35790
C        -19.57167      -17.31504        4.96974
C        -18.74881      -16.55579        4.09329
S        -20.66437      -18.57686        4.51995
C        -21.12151      -18.84197        6.12320
C        -20.49720      -18.00992        7.01177
Br       -22.36123      -20.14822        6.63627
C        -17.01645      -14.37075        6.44730
O        -16.82896      -14.06410        7.60672
C        -16.40786      -13.81496        5.19485
C        -15.67957      -12.68928        5.22246
C        -15.33116      -11.92116        6.40833
C        -15.11113      -10.60043        6.42365
C        -14.71417       -9.83698        7.58184
C        -14.33386       -8.58563        7.28072
C        -14.39466       -8.29465        5.85788
S        -15.26337       -9.57433        5.02612
C        -13.77768       -7.29313        5.20665
C        -12.91831       -6.28203        5.79136
C        -12.14833       -5.65295        4.88994
C        -12.36878       -6.11426        3.53987
S        -13.75599       -7.15853        3.44735
C        -11.58874       -5.86362        2.48062
N        -11.73076       -6.37294        1.20438
C        -10.93494       -6.21848        0.11257
S        -11.68548       -6.27780       -1.44284
C        -10.25614       -5.82152       -2.21765
N        -10.25130       -5.56245       -3.62492
O         -9.49468       -4.66131       -4.01136
O        -10.97280       -6.26229       -4.34599
C         -9.18446       -5.71916       -1.36632
C         -9.56175       -6.02476       -0.01859
C         -8.59288       -6.05688        1.03668
C         -8.64342       -6.83406        2.13150
C         -7.69064       -6.70759        3.23831
C         -7.17135       -5.44862        3.61542
C         -6.22889       -5.39014        4.62947
C         -5.84247       -6.57462        5.28866
C         -6.39386       -7.80514        4.97411
C         -7.32526       -7.86949        3.94346
C         -4.77755       -6.28319        6.20850
C         -4.44884       -4.91805        6.13129
C         -5.42847       -4.20263        5.19108
C         -4.63556       -3.39495        4.11591
C         -3.67472       -4.18643        3.21917
C         -6.33057       -3.25570        6.05337
C         -7.18274       -3.92080        7.14728
C         -3.36791       -4.40262        6.83307
C         -2.61109       -5.28137        7.61540
C         -3.01003       -6.62727        7.75105
C         -4.08776       -7.13779        7.04007
C         -1.45140       -4.77929        8.35253
C         -0.37146       -5.53151        8.62051
C          0.65129       -5.10640        9.53790
C          1.37835       -5.98386       10.27133
C          2.05469       -5.19810       11.27075
C          2.68683       -5.58903       12.39030
C          3.01738       -4.52861       13.31744
C          3.43127       -4.58815       14.59469
C          3.50837       -3.22814       15.15418
C          3.22196       -2.33299       14.18074
C          2.83535       -3.09907       13.02208
C          2.27260       -2.70645       11.86648
C          1.80142       -3.77605       11.01119
C          0.98302       -3.73440        9.95225
C          3.83118       -2.85721       16.50906
C          3.53883       -3.62534       17.56692
H        -18.71953      -15.92261        7.97007
H        -18.80956      -16.76465        3.03264
H        -20.66433      -18.02849        8.08230
H        -15.31576      -12.24368        4.30257
H        -15.22111      -12.46893        7.34156
H        -14.69837      -10.25471        8.57977
H        -13.97055       -7.88296        8.01594
H        -12.86247       -6.09631        6.85422
H        -11.40202       -4.91275        5.14183
H        -10.72317       -5.21973        2.60571
H        -12.63511       -6.82711        1.06697
H         -8.18118       -5.46383       -1.69043
H         -7.73857       -5.39425        0.91114
H         -9.43570       -7.57018        2.26067
H         -7.48164       -4.54626        3.09854
H         -6.07394       -8.70672        5.48387
H         -7.72974       -8.84225        3.67099
H         -4.03311       -2.62649        4.62013
H         -5.32728       -2.85228        3.46035
H         -2.92447       -4.74051        3.79212
H         -3.12681       -3.49361        2.56827
H         -4.20632       -4.88766        2.56986
H         -7.01008       -2.68296        5.40937
H         -5.68992       -2.51840        6.55639
H         -8.05387       -4.43176        6.72433
H         -7.55833       -3.15980        7.84124
H         -6.61887       -4.64104        7.74726
H         -3.10392       -3.35225        6.75396
H         -2.47426       -7.29993        8.41517
H         -4.36081       -8.18138        7.13102
H         -1.54174       -3.76687        8.73510
H         -0.29357       -6.55298        8.25482
H          1.32155       -7.05981       10.25456
H          2.83433       -6.62668       12.65702
H          3.62376       -5.48344       15.16370
H          3.17098       -1.25991       14.26291
H          2.06563       -1.67321       11.62537
H          0.53926       -2.85195        9.52059
H          4.30435       -1.89070       16.66246
H          3.03223       -4.58041       17.46113
H          3.78155       -3.30395       18.57360
