112

C         11.96591      -12.39233       10.44142
C         12.04681      -11.52493        9.43071
C         13.13287      -10.61655        9.18191
C         12.92668       -9.81833        8.12248
C         11.65013      -10.03665        7.45789
S         10.78936      -11.36846        8.24319
C         11.13986       -9.32894        6.42969
C         11.75445       -8.19533        5.76402
C         10.95128       -7.58581        4.87678
C          9.64025       -8.18880        4.77208
S          9.54526       -9.63956        5.73051
C          8.62669       -7.67099        4.06156
C          7.25726       -8.20211        3.99158
C          6.87807       -9.05427        2.94646
C          5.55668       -9.48694        2.89128
C          4.61674       -9.09975        3.87336
C          4.99093       -8.26889        4.91501
C          6.31548       -7.82035        4.96946
C          3.33753       -9.70980        3.57954
C          3.45646      -10.49057        2.41028
C          4.88515      -10.39865        1.85790
C          5.55748      -11.79682        1.79126
C          5.71018      -12.52596        3.12573
C          4.88305       -9.76448        0.43776
C          4.30764       -8.35137        0.33417
C          2.37337      -11.20096        1.90617
C          1.15529      -11.12282        2.59220
C          1.03436      -10.34172        3.75283
C          2.12830       -9.62925        4.25282
C         -0.00422      -11.86604        2.10628
C         -0.20473      -13.14379        2.45786
C         -1.30426      -13.90073        1.96004
S         -2.01083      -15.06913        2.99650
C         -3.17637      -15.56359        1.83671
C         -3.00503      -14.87269        0.64405
C         -1.92048      -13.91903        0.71650
C         -1.52888      -13.12689       -0.50149
C         -1.37012      -14.04458       -1.69451
S         -2.91358      -14.80632       -2.14205
O         -2.60169      -16.11243       -2.69404
O         -3.65410      -13.83840       -2.93355
C         -3.81483      -15.04954       -0.61072
C         -4.08911      -16.59064        2.22952
C         -5.33687      -16.66194        1.74494
C         -6.27281      -17.68776        2.09263
S         -5.76347      -19.23315        2.63940
C         -7.36352      -19.89163        2.77815
C         -8.28054      -18.93061        2.37727
C         -7.65174      -17.66855        2.01959
C         -8.35794      -16.52004        1.62529
C         -9.76028      -16.68539        1.64123
C        -10.61802      -15.52814        1.29390
O        -11.83392      -15.56009        1.27201
O         -9.93366      -14.40671        0.99168
C        -10.37902      -17.93066        1.98307
O        -11.75008      -18.07139        2.03823
C         -9.67185      -19.10984        2.31524
C         -7.50434      -21.26461        3.26796
S         -6.33172      -22.46298        2.75976
C         -7.04744      -23.71898        3.66093
C         -8.18271      -23.28392        4.28683
C         -8.42638      -21.86830        4.11539
C         -9.49919      -21.21261        4.75096
C        -10.38277      -22.08750        5.43975
C        -11.65036      -21.57786        6.05303
O        -12.40425      -22.33452        6.65213
O        -11.94169      -20.27115        5.91643
C        -10.10649      -23.50126        5.56542
O        -10.94810      -24.35986        6.24483
C         -8.97757      -24.15138        5.02799
H         12.75064      -12.48052       11.18376
H         11.10000      -13.03668       10.55883
H         14.01838      -10.58785        9.80137
H         13.64213       -9.07234        7.80547
H         12.75703       -7.85198        5.97922
H         11.23473       -6.70912        4.31061
H          8.76576       -6.74655        3.50796
H          7.59746       -9.37292        2.19934
H          4.28140       -7.96765        5.67818
H          6.61522       -7.16755        5.78683
H          6.55782      -11.70308        1.34806
H          4.98439      -12.44540        1.11522
H          6.43632      -12.02442        3.77284
H          6.07642      -13.54325        2.95214
H          4.76129      -12.60406        3.66370
H          4.31332      -10.40837       -0.24572
H          5.90827       -9.73484        0.04617
H          3.30143       -8.28187        0.75694
H          4.24172       -8.05480       -0.71795
H          4.94817       -7.62207        0.83961
H          2.47238      -11.79803        1.00595
H          0.08234      -10.29029        4.27683
H          2.02130       -9.03142        5.15084
H         -0.67558      -11.31330        1.45774
H          0.47250      -13.62381        3.16372
H         -0.57507      -12.61412       -0.35813
H         -2.29071      -12.36001       -0.68800
H         -0.65515      -14.84697       -1.48170
H         -1.01921      -13.48924       -2.56940
H         -4.24232      -16.05289       -0.68474
H         -4.63206      -14.31863       -0.60457
H         -3.73789      -17.30580        2.97048
H         -5.69431      -15.90026        1.06139
H         -7.89538      -15.58136        1.35396
H        -10.61341      -13.73761        0.78240
H        -12.17539      -17.23088        1.75714
H        -10.20186      -20.03436        2.50130
H         -6.60748      -24.70774        3.66193
H         -9.62724      -20.14589        4.70189
H        -11.37452      -19.71186        5.36170
H        -11.72887      -23.85506        6.56818
H         -8.79618      -25.20966        5.16693
