82

C         15.52962        2.03968        0.88996
C         14.27025        2.03042        1.33118
C         13.72423        2.92428        2.31560
C         12.43274        2.68992        2.58704
C         11.86251        1.57787        1.83915
S         13.08359        0.89508        0.75905
C         10.60638        1.10253        1.95213
C          9.57209        1.61986        2.82884
C          8.43430        0.91257        2.80851
C          8.47336       -0.22646        1.91678
S          9.99346       -0.29329        1.06170
C          7.46851       -1.10942        1.80608
C          7.52044       -2.29095        1.00869
S          6.88514       -2.24413       -0.58403
C          7.26744       -3.87848       -0.86871
C          7.86495       -4.49051        0.20793
C          8.29404       -5.92643        0.21622
C          7.98595       -3.56990        1.31367
C          8.57761       -3.94874        2.56952
C          8.30001       -3.43461        3.77826
C          8.94686       -3.83636        5.00266
C         10.23844       -4.16490        5.09059
C         10.87690       -4.52897        6.31869
C         12.20727       -4.53611        6.53791
C         13.23848       -4.07537        5.54806
C         12.75148       -4.97951        7.87118
N         13.07785       -6.39455        7.78282
C         12.20001       -7.43236        8.02652
C         10.93594       -7.36596        8.45492
C         10.01257       -8.44983        8.66310
C          9.86712       -9.60207        7.98276
C         10.71132      -10.04855        6.81758
C          8.74482      -10.55086        8.35364
N          9.31592      -11.80364        8.84602
C          9.63001      -12.83518        7.97700
C          8.81399      -13.53789        7.17892
C          9.28858      -14.53794        6.29250
S         10.94543      -15.02074        6.05425
C         10.55480      -16.23102        4.87437
C          9.21742      -16.21697        4.70605
C          8.53277      -15.29177        5.46273
O          7.17673      -15.24284        5.29722
C          7.04169      -16.24485        4.35492
N          5.70313      -16.50066        3.93675
O          5.34115      -17.68411        3.95236
O          5.03758      -15.53197        3.55296
C          8.22619      -16.87705        3.96625
H         16.25744        2.75269        1.26050
H         15.86899        1.32920        0.14208
H         14.31048        3.70126        2.78625
H         11.87468        3.26767        3.30946
H          9.70560        2.49147        3.45444
H          7.57082        1.14864        3.41557
H          6.56818       -0.97742        2.39909
H          7.03213       -4.32128       -1.82643
H          8.12173       -6.39459       -0.75919
H          7.73250       -6.49454        0.96512
H          9.36240       -6.01455        0.43974
H          9.31848       -4.74610        2.51611
H          7.52815       -2.68322        3.90856
H          8.33074       -3.77872        5.90498
H         10.84638       -4.16970        4.18462
H         10.20159       -4.84417        7.10992
H         12.93680       -4.22833        4.50931
H         14.17569       -4.62515        5.67875
H         13.44343       -3.01050        5.69965
H         12.04683       -4.78514        8.68729
H         13.65441       -4.41219        8.11829
H         13.69388       -6.60524        6.99879
H         12.65886       -8.39100        7.79572
H         10.51575       -6.39991        8.71398
H          9.29639       -8.22904        9.45766
H         11.24956       -9.23528        6.32771
H         10.09207      -10.50760        6.03885
H         11.45197      -10.78441        7.15144
H          8.07802      -10.71134        7.49679
H          8.12246      -10.12361        9.15009
H          8.72579      -12.15794        9.59853
H         10.70541      -12.99787        7.99183
H          7.74697      -13.32777        7.19409
H         11.32316      -16.83469        4.41365
H          8.32483      -17.67915        3.24876
