90

C          4.01922      -12.24999        4.30608
C          3.63167      -13.01986        3.28781
C          3.02192      -14.32011        3.38366
C          2.73239      -14.86599        2.19285
C          3.07636      -14.01918        1.06280
S          3.79709      -12.50700        1.64109
C          2.95036      -14.30622       -0.24631
C          2.57693      -15.57157       -0.85488
C          2.89263      -15.64360       -2.16113
C          3.50236      -14.43012       -2.66646
S          3.32814      -13.14356       -1.50682
C          4.11324      -14.26958       -3.85221
N          4.79683      -13.17837       -4.37580
C          5.62823      -12.30941       -3.71471
S          6.74219      -12.89573       -2.51276
C          7.35929      -11.35691       -2.24351
N          8.38913      -11.17884       -1.27631
O          9.43072      -10.64387       -1.67584
O          8.14889      -11.53660       -0.11712
C          6.82558      -10.39308       -3.05856
C          5.80048      -10.94124       -3.90625
C          5.09725      -10.08546       -4.82623
C          3.90039      -10.31456       -5.37857
C          3.23247       -9.48290       -6.33122
S          1.51863       -9.54611       -6.18343
C          1.20406       -8.47787       -7.48662
C          2.36986       -8.04039       -8.09487
C          3.56694       -8.68377       -7.42671
C          4.87153       -8.50910       -7.97208
C          6.07672       -9.06905       -7.49109
N          7.13105       -9.44825       -7.15075
C          4.95521       -7.73441       -9.13925
C          3.84996       -7.11844       -9.74117
C          2.52686       -7.20582       -9.26462
O          1.65899       -6.67538      -10.21440
C          0.65328       -5.77148       -9.81958
C         -0.18133       -8.29080       -7.70290
C         -0.72187       -7.06956       -7.63926
N         -1.99868       -6.64653       -7.98353
C         -3.18794       -7.20277       -7.60443
S         -3.18512       -8.63317       -6.65308
C         -4.80751       -8.48464       -6.32816
N         -5.33785       -9.40191       -5.38336
O         -5.82943       -8.91279       -4.36076
O         -5.23532      -10.60723       -5.64986
C         -5.41908       -7.44636       -6.98181
C         -4.48408       -6.74134       -7.84089
C         -4.82936       -5.66420       -8.74787
C         -6.07069       -5.17537       -8.97038
C         -6.53030       -4.10688       -9.85337
C         -5.93466       -2.98515      -10.29785
C         -6.64593       -1.91331      -10.97040
C         -5.92215       -0.79232      -11.13118
C         -4.54684       -0.91261      -10.67620
S         -4.26145       -2.55873      -10.09275
C         -3.60610        0.05285      -10.62342
C         -3.79696        1.48381      -10.81334
C         -2.71684        2.21992      -10.50334
C         -1.58273        1.42714      -10.09864
S         -1.91289       -0.27236      -10.21696
C         -0.41967        1.89350       -9.63697
H          3.88672      -12.55295        5.33683
H          4.47965      -11.28147        4.12791
H          2.81873      -14.79210        4.33460
H          2.25591      -15.82932        2.08418
H          2.15681      -16.39649       -0.29781
H          2.75562      -16.52606       -2.77068
H          4.11345      -15.08975       -4.56633
H          4.51206      -12.94824       -5.32399
H          7.13537       -9.35431       -3.04282
H          5.60419       -9.15269       -5.05378
H          3.33037      -11.16671       -4.99101
H          5.92470       -7.61971       -9.63386
H          4.02403       -6.56061      -10.66475
H         -0.23968       -6.37099       -9.72138
H          0.39122       -5.08475      -10.63103
H          0.90606       -5.16291       -8.94363
H         -0.78310       -9.17852       -7.87881
H         -0.07641       -6.22989       -7.42088
H         -2.00676       -5.72251       -8.41269
H         -6.46285       -7.20446       -6.86588
H         -4.01163       -5.23184       -9.32257
H         -6.90601       -5.63192       -8.43861
H         -7.59356       -4.21246      -10.08071
H         -7.68338       -1.99895      -11.26914
H         -6.31566        0.10483      -11.59065
H         -4.74379        1.92779      -11.08584
H         -2.68773        3.30066      -10.51591
H         -0.23816        2.95395       -9.50829
H          0.38048        1.21763       -9.34777
