90

C        -10.03575        2.11020        1.43025
C        -11.41503        2.02927        1.60493
F        -12.17547        3.10366        1.34861
C        -12.00538        0.84922        2.03505
F        -13.33496        0.77230        2.18602
C        -11.22418       -0.26472        2.31399
C         -9.83169       -0.20413        2.16001
C         -9.21776        1.00020        1.69223
C         -7.81758        1.04954        1.49089
C         -7.03863       -0.07091        1.75724
C         -7.67756       -1.22943        2.22904
C         -9.04374       -1.32178        2.44135
C         -6.71896       -2.33629        2.35602
O         -6.89694       -3.37733        2.95056
C         -5.48969       -1.86236        1.64744
C         -5.58694       -0.38711        1.58282
C         -4.55373        0.48843        1.54387
C         -4.74967        1.90076        1.60716
N         -4.92226        3.04268        1.65669
C         -3.19498        0.05462        1.51541
N         -2.09401       -0.30932        1.48968
C         -4.65357       -2.67970        0.98711
C         -4.77365       -4.13980        0.87449
C         -4.05988       -4.97951        1.72864
C         -4.09245       -6.36107        1.52745
F         -3.36463       -7.13157        2.35245
C         -4.83025       -6.94101        0.48212
C         -5.56691       -6.09367       -0.35285
C         -5.53749       -4.71381       -0.15003
F         -6.23913       -3.92941       -0.98343
C         -4.83249       -8.39014        0.24811
N         -4.65928       -9.29548        1.27967
C         -4.71548      -10.55590        0.76469
C         -4.64008      -11.91818        1.13422
C         -4.81306      -12.61710       -0.04896
N         -4.96643      -11.72361       -1.08722
C         -4.91360      -10.46268       -0.56883
C         -4.99153       -9.10150       -0.93698
C         -4.86511      -13.98517       -0.38814
C         -4.79472      -14.95415        0.53757
C         -4.85303      -16.37557        0.17482
C         -4.37218      -16.81447       -1.06060
C         -4.45343      -18.15354       -1.41020
F         -4.05577      -18.48214       -2.64749
C         -4.90583      -19.12368       -0.50869
C         -5.40392      -18.68544        0.72482
C         -5.37346      -17.32850        1.05672
F         -5.87203      -16.95212        2.24418
C         -4.93989      -20.56309       -0.81276
C         -4.12831      -21.28325       -1.60274
C         -4.59958      -22.64744       -2.01050
O         -5.39903      -23.36313       -1.44557
C         -3.94865      -22.90778       -3.30606
C         -4.19297      -23.98380       -4.14097
C         -3.55055      -24.00714       -5.38341
C         -2.72084      -22.91167       -5.77571
C         -2.11383      -22.93145       -7.03909
C         -2.29220      -24.02348       -7.88189
C         -3.07799      -25.09779       -7.48902
C         -3.71543      -25.09362       -6.25278
F         -3.22814      -26.15445       -8.29881
F         -1.68753      -24.03221       -9.07750
C         -2.50131      -21.83480       -4.89537
C         -3.07550      -21.85896       -3.63365
C         -2.97061      -20.96734       -2.44811
C         -1.88718      -20.22242       -2.11823
C         -1.72151      -19.65724       -0.82008
N         -1.57124      -19.20067        0.23724
C         -0.80761      -19.99325       -3.02006
N          0.05142      -19.79108       -3.77041
H         -9.61576        3.05259        1.08352
H        -11.71751       -1.17571        2.64419
H         -7.38185        1.96320        1.09195
H         -9.47515       -2.26000        2.78281
H         -3.85997       -2.28601        0.35764
H         -3.45997       -4.58187        2.54084
H         -6.16701       -6.48967       -1.16673
H         -4.50983       -9.09205        2.26038
H         -4.48884      -12.33238        2.12119
H         -5.10732      -11.91904       -2.07003
H         -5.13486       -8.69773       -1.92988
H         -4.98210      -14.23611       -1.43894
H         -4.70986      -14.73219        1.59858
H         -3.92520      -16.13152       -1.77610
H         -5.81774      -19.38462        1.44713
H         -5.79344      -21.07558       -0.36212
H         -4.86894      -24.77388       -3.82448
H         -1.48544      -22.11178       -7.37851
H         -4.32640      -25.94971       -5.97912
H         -1.88290      -21.00319       -5.22166
