106

C        -11.79579        0.14090       -0.75257
C        -13.10504       -0.20267       -0.41888
F        -14.10784        0.60697       -0.78494
C        -13.37496       -1.37142        0.27804
F        -14.63753       -1.70687        0.57583
C        -12.33954       -2.20830        0.67302
C        -11.01468       -1.87666        0.35914
C        -10.72745       -0.69275       -0.38372
C         -9.39226       -0.38599       -0.74761
C         -8.35643       -1.23455       -0.36864
C         -8.68320       -2.36992        0.38464
C         -9.97306       -2.71091        0.75848
C         -7.49552       -3.18560        0.65188
O         -7.45194       -4.11250        1.43249
C         -6.40766       -2.60498       -0.20585
C         -6.88099       -1.25950       -0.62607
C         -6.11237       -0.21632       -1.03209
C         -4.69240       -0.30574       -1.13041
N         -3.53849       -0.38925       -1.21673
C         -6.65425        1.06382       -1.34200
N         -7.09863        2.10459       -1.60025
C         -5.35208       -3.31922       -0.63931
C         -5.13446       -4.67888       -0.27488
C         -4.43077       -5.19601        0.81303
C         -4.53347       -6.60204        0.86238
C         -5.23800       -7.10015       -0.21117
S         -5.77514       -5.94989       -1.28317
C         -5.33905       -8.50177       -0.07828
C         -4.70896       -8.88642        1.08529
C         -4.13672       -7.70666        1.73512
C         -3.40775       -7.65058        2.86644
C         -3.08072       -8.82087        3.60198
N         -2.80809       -9.77707        4.20129
C         -2.90755       -6.42080        3.37608
N         -2.49051       -5.42104        3.79260
C         -4.82986      -10.27482        1.30915
C         -5.53763      -10.88585        0.27632
S         -6.02794       -9.74361       -0.93882
C         -5.86341      -12.28216        0.16016
N         -5.99584      -12.89531       -1.06685
C         -6.24894      -14.21885       -0.85699
C         -6.46076      -15.43259       -1.54578
C         -6.62030      -16.38853       -0.55437
N         -6.56756      -15.77396        0.67950
C         -6.30751      -14.44366        0.47690
C         -6.07286      -13.22364        1.16001
C         -6.85474      -17.78158       -0.67591
C         -6.46478      -18.69530        0.22771
C         -6.69566      -20.08528       -0.00769
C         -7.70308      -20.70508       -0.75306
C         -7.56190      -22.10409       -0.75588
C         -6.48072      -22.50801       -0.00509
S         -5.61734      -21.26967        0.68893
C         -6.39436      -23.91596       -0.06003
C         -7.41678      -24.38918       -0.85186
C         -8.22759      -23.27271       -1.32548
C         -9.32308      -23.31167       -2.10960
C         -9.87400      -24.54065       -2.57254
N        -10.30556      -25.54927       -2.94487
C         -9.98100      -22.12660       -2.52967
N        -10.51318      -21.15592       -2.88351
C         -7.35714      -25.78502       -1.00518
C         -6.27306      -26.32763       -0.31344
S         -5.39866      -25.09258        0.55838
C         -5.84441      -27.67948       -0.20148
C         -5.91940      -28.58657       -1.18627
C         -5.78160      -30.02427       -0.78512
O         -5.29928      -30.47488        0.23239
C         -6.41747      -30.79702       -1.86387
C         -6.56067      -32.17487       -1.89758
C         -7.15317      -32.74680       -3.02895
C         -7.63052      -31.90543       -4.07754
C         -8.19426      -32.48468       -5.22230
C         -8.27839      -33.86752       -5.33480
C         -7.82247      -34.68635       -4.31168
C         -7.26751      -34.13801       -3.15907
F         -7.90287      -36.01838       -4.42962
F         -8.79544      -34.40236       -6.44902
C         -7.50546      -30.50751       -3.98141
C         -6.85844      -29.94661       -2.88968
C         -6.38019      -28.56653       -2.58437
C         -6.14579      -27.62070       -3.52737
C         -5.21072      -26.56546       -3.34087
N         -4.41251      -25.72230       -3.27722
C         -6.73465      -27.64860       -4.82618
N         -7.24246      -27.64846       -5.86607
H        -11.62942        1.06312       -1.30337
H        -12.58265       -3.11787        1.21676
H         -9.21593        0.50291       -1.34647
H        -10.14838       -3.62392        1.32202
H         -4.64961       -2.92088       -1.36195
H         -3.93419       -4.56195        1.53690
H         -4.43851      -10.83036        2.15269
H         -5.89707      -12.47277       -1.98059
H         -6.47007      -15.59968       -2.61399
H         -6.68758      -16.18781        1.59510
H         -6.05099      -13.05493        2.22783
H         -7.31315      -18.09903       -1.61049
H         -5.92970      -18.41059        1.12909
H         -8.47984      -20.14162       -1.25447
H         -8.03739      -26.38528       -1.59352
H         -5.51159      -28.00100        0.78775
H         -6.18819      -32.77910       -1.07437
H         -8.55240      -31.87459       -6.04832
H         -6.91437      -34.80998       -2.38159
H         -7.89605      -29.90269       -4.79265
