40

C          2.99058        0.59630        0.49425
C          1.52553        0.37441        0.27488
C          0.65431        1.45629        0.05349
C         -0.66702        1.08002       -0.13908
C         -1.79119        1.99034       -0.41511
C         -3.11450        1.61489       -0.61723
C         -3.96323        2.69626       -0.88503
C         -3.30852        3.92526       -0.89507
C         -3.93179        5.23555       -1.16450
C         -3.23118        6.42879       -1.15825
C         -4.01167        7.52120       -1.45379
C         -5.32918        7.20339       -1.69581
Se        -5.70156        5.43199       -1.55714
S         -1.67622        3.66380       -0.56469
S         -0.76451       -0.59279       -0.02716
C          0.87481       -0.87399        0.25819
C          1.43868       -2.23790        0.43212
C          2.77000       -2.60931        0.63293
C          2.96000       -3.99223        0.73826
C          1.78559       -4.72596        0.62663
C          1.67679       -6.19645        0.68923
C          0.47654       -6.87832        0.60179
C          0.61917       -8.24418        0.67374
C          1.92637       -8.65175        0.81604
Se         3.12399       -7.28963        0.88083
S          0.51283       -3.64872        0.39626
H          3.23822        1.67877        0.46304
H          3.57101        0.09495       -0.30696
H          3.28420        0.20900        1.49184
H          0.98508        2.48682        0.02707
H         -3.46185        0.59056       -0.57880
H         -5.02204        2.57523       -1.07058
H         -2.17278        6.50859       -0.94741
H         -3.62770        8.53194       -1.49579
H         -6.07471        7.94591       -1.94683
H          3.60318       -1.93288        0.69990
H          3.93481       -4.43592        0.89042
H         -0.48602       -6.39735        0.48716
H         -0.21406       -8.93226        0.62111
H          2.21245       -9.69289        0.88373
