96

C          1.48090        1.65246        0.37488
S          2.99032        0.78931       -0.14639
C          3.40991       -0.09837        1.35079
C          3.84742        0.64658        2.46868
C          3.96761        2.07179        2.68871
C          4.47456        2.42055        3.92317
C          4.74718        3.75466        4.43612
N          4.92550        4.77185        3.54614
N          5.22220        6.12631        3.93402
C          5.33710        6.51716        5.22775
C          5.12943        5.50642        6.17324
N          5.15229        5.57937        7.51011
O          4.86987        4.30563        7.96491
N          4.67512        3.42630        6.92056
C          4.83482        4.12955        5.79129
S          4.83544        1.01869        4.81747
C          4.25266       -0.06082        3.60312
C          4.17112       -1.46352        3.64567
S          4.66200       -2.35018        5.12329
C          3.07237       -3.08468        5.60629
C          3.74871       -2.20959        2.52676
C          3.60517       -3.63283        2.32976
C          3.13102       -3.96702        1.09038
C          2.81438       -5.28749        0.67497
C          2.47151       -6.36368        0.26612
C          1.98289       -7.53585       -0.36723
C          2.13789       -8.83721        0.05706
C          1.53653       -9.76442       -0.85297
C          0.95006       -9.12444       -1.92231
C          0.29727       -9.74480       -3.01924
C         -0.28395      -10.23638       -4.07781
C         -0.96152      -10.80944       -5.31187
C         -1.81480      -11.84276       -5.34709
C         -2.40458      -12.26962       -6.59290
S         -1.48262      -12.27424       -8.05769
C         -2.81420      -12.71593       -9.05346
C         -2.57780      -12.83146      -10.46030
C         -2.02315      -13.92051      -11.01841
C         -1.26143      -13.77625      -12.30953
O         -1.42883      -12.97498      -13.20125
C         -0.15254      -14.75742      -12.20311
C          0.92577      -14.91067      -13.05392
C          1.95439      -15.78306      -12.66191
C          3.01080      -16.02050      -13.59118
N          3.92599      -16.19826      -14.28439
C          1.92302      -16.40817      -11.39107
C          3.01969      -17.24189      -10.81687
O          2.77558      -18.10726       -9.99075
O          4.28127      -16.92412      -11.15340
C          0.77281      -16.28089      -10.57907
C         -0.28048      -15.49622      -11.01821
C         -1.62904      -15.22230      -10.47809
C         -2.45704      -16.18689      -10.01062
C         -3.86811      -15.99918       -9.95557
N         -5.01883      -15.87335       -9.91503
C         -2.00499      -17.50997       -9.72000
N         -1.63130      -18.57992       -9.49446
C         -3.96440      -12.80476       -8.28863
C         -3.68291      -12.75429       -6.85852
C         -4.69359      -13.07262       -5.83986
O         -4.51426      -12.92162       -4.64161
C         -5.95571      -13.56631       -6.40809
C         -6.96821      -14.21477       -5.71119
C         -7.05221      -14.73544       -4.30102
F         -5.91400      -14.60378       -3.58449
F         -8.03863      -14.12403       -3.59775
F         -7.33454      -16.06697       -4.29542
S         -8.35228      -14.43010       -6.71119
C         -7.60437      -13.73427       -8.08170
C         -8.39427      -13.50712       -9.34039
F         -9.66527      -13.98279       -9.25633
F         -8.50574      -12.17684       -9.59499
F         -7.83990      -14.08885      -10.42824
C         -6.27850      -13.42843       -7.81980
C         -5.31981      -12.95835       -8.82560
O         -5.61623      -12.70002       -9.98253
S          1.10046       -7.43277       -1.82319
S          2.94827       -2.60332        0.10360
C          3.38577       -1.50521        1.37262
H          1.23356        2.40324       -0.38096
H          1.60592        2.17293        1.32607
H          0.64744        0.95254        0.46464
H          3.68521        2.82193        1.95715
H          5.56985        7.54654        5.44747
H          3.19658       -3.60225        6.56070
H          2.73170       -3.82571        4.88109
H          2.30313       -2.31656        5.71261
H          3.81330       -4.38059        3.08507
H          2.66182       -9.12282        0.96182
H          1.54776      -10.84066       -0.72752
H         -0.67558      -10.27622       -6.21530
H         -2.12336      -12.31944       -4.41988
H         -2.66691      -11.91632      -11.04772
H          0.96772      -14.36308      -13.99349
H          4.48380      -16.20581      -11.77972
H          0.73062      -16.78912       -9.61590
