102

C          4.22202       -5.74489        2.26974
C          4.85890       -5.34573        0.94451
C          4.33007       -4.00569        0.44682
C          4.97476       -2.79155        0.81607
C          6.15130       -2.55354        1.63256
C          6.51515       -1.22598        1.80706
C          7.64596       -0.59098        2.59174
C          7.78075        0.80763        2.63274
C          8.79845        1.43956        3.35193
C          9.76578        0.71716        4.06468
C         10.86264        1.46368        4.82119
C         11.29734        0.98776        6.06664
C         12.37563        1.54099        6.80760
O         12.81002        0.86728        7.92501
C         11.79834        0.29021        8.75129
C         13.09004        2.67325        6.34451
C         14.32007        3.29896        7.01634
C         15.23251        4.07776        6.38131
C         16.48412        4.55702        7.00303
C         17.04038        3.93305        8.06883
C         18.50080        4.12146        8.38175
C         19.38782        3.35920        7.58368
C         20.78521        3.45219        7.71261
O         21.69334        2.67745        7.03766
C         21.29674        2.24363        5.74423
C         21.33998        4.33631        8.60577
C         20.49654        5.11787        9.39183
C         19.08943        4.96977        9.34629
O         18.29425        5.62330       10.26325
C         18.97804        5.95448       11.48717
C         16.22943        2.79946        8.66909
N         16.53945        2.52423       10.08771
C         15.75972        3.14991       10.90552
F         15.87066        2.87855       12.21277
C         14.69627        4.12974       10.48134
F         14.31131        5.05815       11.35985
N         14.13878        4.11425        9.31418
C         14.66501        3.00359        8.47273
C         12.58584        3.22065        5.14070
C         11.51135        2.64287        4.39193
O         11.12464        3.17144        3.17859
C         11.22980        4.58701        3.04360
C          9.63869       -0.70638        4.05929
N         10.50255       -1.48565        4.76509
C         10.35922       -2.83485        4.76741
C         11.32596       -3.62638        5.59421
C          9.36700       -3.44116        4.02573
C          9.21269       -4.92767        3.92199
N          8.49160       -2.69825        3.32060
C          8.58751       -1.35004        3.31837
S          5.39956       -0.26027        0.92672
C          4.44882       -1.58273        0.36585
C          3.28422       -1.52684       -0.43909
C          2.72858       -0.18603       -0.90171
C          1.72941        0.39744        0.08800
C          2.62839       -2.73563       -0.79671
C          1.43448       -2.95099       -1.57748
C          1.10850       -4.27567       -1.72717
S          2.21839       -5.28421       -0.93804
C          3.16727       -3.94765       -0.35982
H          4.70550       -6.64398        2.66540
H          3.15683       -5.96558        2.14813
H          4.31576       -4.95104        3.01739
H          4.68621       -6.13320        0.20223
H          5.94622       -5.29738        1.06094
H          6.69546       -3.37592        2.07474
H          7.08818        1.45753        2.10164
H          8.81285        2.52711        3.34851
H         10.79983        0.10565        6.45436
H         11.33036       -0.58043        8.28237
H         11.04928        1.03484        9.04160
H         12.28538       -0.07396        9.66085
H         15.13489        4.33648        5.32946
H         17.02488        5.32894        6.45962
H         18.95334        2.66158        6.87437
H         22.12181        1.66299        5.32086
H         21.11634        3.10421        5.09305
H         20.42543        1.58536        5.78325
H         22.41561        4.42001        8.70376
H         20.97916        5.81819       10.06703
H         19.53709        6.89126       11.37611
H         19.64626        5.15005       11.82337
H         18.23534        6.09806       12.27629
H         16.49332        1.88716        8.11350
H         14.20231        2.09900        8.85090
H         13.05592        4.11646        4.74831
H         10.62248        4.88736        2.18358
H         12.26299        4.87986        2.83418
H         10.84052        5.11069        3.92380
H         11.95907       -2.96565        6.19451
H         11.97167       -4.22789        4.94768
H         10.79249       -4.28737        6.28500
H         10.09927       -5.36507        3.45232
H          8.34688       -5.18524        3.30250
H          9.06124       -5.37924        4.90682
H          2.24766       -0.29822       -1.88020
H          3.54231        0.52920       -1.06695
H          0.85594       -0.25301        0.20468
H          1.37760        1.37276       -0.26471
H          2.17634        0.53884        1.07760
H          0.83805       -2.15813       -2.01112
H          0.26859       -4.69394       -2.26533
