77

C          3.44882        1.59581        0.79709
C          2.52125        0.67326        0.02095
N          3.04674       -0.67428       -0.14385
C          2.43416       -1.82891        0.27756
C          3.22821       -2.90162       -0.09481
C          4.36677       -2.36804       -0.76266
C          4.21641       -0.99494       -0.78602
C          5.45472       -3.14794       -1.29638
O          6.40830       -2.62608       -1.86975
C          5.28102       -4.60993       -1.08816
C          6.15927       -5.60724       -1.49995
C          7.40671       -5.60433       -2.27832
C          7.70815       -4.68073       -3.26169
C          8.91745       -4.76920       -3.94532
C          9.78313       -5.80361       -3.64585
C         11.07064       -5.96119       -4.32033
C         11.43655       -5.59317       -5.60858
C         12.80178       -5.89303       -5.89433
C         13.42235       -6.46763       -4.80971
S         12.40255       -6.66103       -3.48135
C         14.80121       -6.80504       -4.92442
S         15.74626       -7.64710       -3.79305
C         17.14044       -7.51862       -4.78452
C         16.88213       -6.84169       -5.95876
C         15.52274       -6.44271       -6.04447
O         15.00798       -5.72591       -7.08557
C         13.55685       -5.69105       -7.17626
N          9.45574       -6.72409       -2.71766
N          8.26656       -6.61792       -2.02929
S          5.61838       -7.13564       -0.94546
C          4.17479       -6.54458       -0.23958
C          3.29939       -7.46690        0.42059
C          3.18749       -8.75442        0.04051
C          2.36038       -9.73549        0.74025
C          2.30278      -11.05373        0.31420
C          1.53337      -11.95415        1.04159
C          0.85843      -11.49356        2.16290
C          0.04437      -12.36132        3.00959
C         -0.65084      -13.51515        2.67986
C         -1.31363      -14.07909        3.79991
C         -1.12550      -13.33654        4.94562
S         -0.13278      -11.99475        4.68576
C         -1.73315      -13.72584        6.17331
S         -1.78075      -12.88260        7.63731
C         -2.69662      -14.13140        8.37500
C         -2.95329      -15.17172        7.50473
C         -2.39137      -14.93360        6.21531
C         -2.41301      -15.82231        5.00505
O         -2.10049      -15.19061        3.73165
N          0.92318      -10.19811        2.53784
N          1.68146       -9.31762        1.82658
C          4.10763       -5.16064       -0.37646
C          2.99278       -4.32331        0.12716
O          1.97546       -4.75569        0.65276
H          2.97755        2.57336        0.94226
H          4.39157        1.75864        0.26361
H          3.68702        1.17971        1.78106
H          2.33439        1.07075       -0.98325
H          1.55893        0.59753        0.53853
H          1.48875       -1.80871        0.80790
H          4.86243       -0.22248       -1.19521
H          7.03302       -3.88008       -3.52633
H          9.15996       -4.01822       -4.68821
H         10.75221       -5.14293       -6.31837
H         18.07924       -7.93955       -4.45253
H         17.63098       -6.64495       -6.71487
H         13.25935       -6.46149       -7.89777
H         13.29502       -4.71827       -7.60732
H          2.71907       -7.10378        1.26941
H          3.73341       -9.14830       -0.81069
H          2.85291      -11.38806       -0.56059
H          1.48781      -12.99489        0.74110
H         -0.69516      -13.92885        1.68083
H         -2.99598      -14.03934        9.40979
H         -3.51102      -16.05671        7.78701
H         -3.40643      -16.27065        4.89498
H         -1.69437      -16.63880        5.14226
