93

C          4.72720       -4.27438       -3.49089
N          5.24023       -3.27681       -2.57998
C          6.18895       -2.30885       -2.86711
O          6.67056       -2.07159       -3.96921
C          6.47489       -1.50265       -1.56854
C          7.49370       -0.49454       -1.57798
C          7.64889        0.76605       -1.13375
C          8.86015        1.38109       -1.59790
C          9.01779        2.63057       -1.17739
C         10.09151        3.52006       -1.39122
S         10.05131        4.58212       -2.72591
C         11.56433        5.31736       -2.38761
C         12.11075        6.39038       -3.16951
C         12.03718        6.73959       -4.46567
C         12.93476        7.82039       -4.79625
C         12.98807        8.11223       -6.09561
C         13.67603        9.09143       -6.87088
C         14.93251        9.55557       -6.93277
C         15.08756       10.54425       -7.94817
C         16.30829       11.05246       -8.02988
C         17.05844       10.32263       -6.97324
O         18.23472       10.51318       -6.72503
N         16.17089        9.40972       -6.38034
C         16.63669        8.40290       -5.47019
N         13.90680       10.69322       -8.57764
C         13.65774       11.45112       -9.77335
C         12.95616        9.88493       -7.95862
O         11.76247        9.85369       -8.19374
C         11.96917        7.16614       -6.68704
O         11.71306        7.05381       -7.87313
N         11.40842        6.42935       -5.63425
C         10.19390        5.68705       -5.83733
N         13.46096        8.26963       -3.63630
C         14.12161        9.51468       -3.35679
C         13.01179        7.47067       -2.59761
O         13.27486        7.66576       -1.41968
C         12.10011        4.70439       -1.24706
C         11.23113        3.71699       -0.63518
C         11.58247        2.98999        0.66567
C         12.78085        3.64948        1.42650
C         12.21803        4.92108        2.04024
N         11.75113        5.97598        2.54938
C         13.86809        4.00490        0.40644
C         14.33019        2.73912       -0.29689
N         14.71354        1.68905       -0.88035
C         13.43068        5.02798       -0.62542
C          7.82722        2.87628       -0.32136
O          7.63420        3.87757        0.35311
N          7.02368        1.72980       -0.40520
C          5.85312        1.63252        0.40310
N          9.52138        0.48051       -2.35499
C         10.74562        0.71491       -3.07914
C          8.80332       -0.71587       -2.36624
O          9.17005       -1.77229       -2.84274
C          5.56099       -2.03114       -0.72694
C          4.80242       -3.09026       -1.32709
C          3.86759       -3.63361       -0.55790
C          3.99889       -2.87906        0.70494
O          3.27991       -3.04299        1.67200
N          5.07041       -1.97823        0.55589
C          5.43902       -1.16274        1.65942
H          5.29311       -4.27613       -4.42483
H          3.67453       -4.06099       -3.70142
H          4.80669       -5.26122       -3.02250
H         16.72466       11.79913       -8.67711
H         17.69155        8.56719       -5.22604
H         16.52930        7.41814       -5.92917
H         16.07779        8.43197       -4.54425
H         14.42945       12.21006       -9.92573
H         12.67544       11.92638       -9.71056
H         13.65222       10.75937      -10.62274
H          9.68544        6.03862       -6.74286
H          9.49695        5.86805       -5.01806
H         10.42149        4.62602       -5.95277
H         14.15797       10.16480       -4.22960
H         15.12653        9.31114       -2.97561
H         13.58364       10.02472       -2.55166
H         11.82929        1.94953        0.41841
H         10.69776        2.95820        1.31513
H         13.14432        2.97928        2.21312
H         14.73766        4.41136        0.94106
H         14.19915        5.13376       -1.40089
H         13.34484        5.97357       -0.08809
H          5.36920        2.60564        0.50072
H          6.18252        1.34699        1.40963
H          5.15190        0.92293       -0.02651
H         10.51519        1.27930       -3.98926
H         11.21283       -0.23150       -3.36359
H         11.44969        1.28423       -2.46728
H          3.16169       -4.41029       -0.74430
H          5.33517       -1.72816        2.59252
H          4.72436       -0.33620        1.72871
H          6.46990       -0.82021        1.56613
