93

C          1.99061        0.34278       -2.13982
N          3.38775        0.15888       -1.79609
C          4.27235        1.13426       -1.51571
O          3.95358        2.30241       -1.54182
C          5.62650        0.57862       -1.21079
C          6.77759        1.29562       -0.89103
C          8.13829        0.74105       -0.62327
O          8.46170       -0.42618       -0.61819
N          9.03216        1.71775       -0.37844
C         10.44037        1.52315       -0.08150
C          8.37086        2.95484       -0.44142
C          8.96739        4.20949       -0.23088
C          8.19191        5.39100       -0.32652
C          8.80637        6.78431       -0.13640
C          9.93995        7.00416        0.66665
C         10.51782        8.30221        0.84627
C         10.03147        9.49823        0.21711
C         10.69780       10.96385        0.44200
C         10.67546       11.99782       -0.58605
C         10.31735       11.85555       -1.95455
O         10.16013       10.81298       -2.55752
S         10.15963       13.32288       -2.72685
C         10.63771       14.18089       -1.39964
O         10.46594       15.37108       -1.33160
C         11.06297       13.37805       -0.34111
C         11.71935       13.85927        0.84981
C         12.44269       15.30991        0.96111
C         12.48205       16.26729       -0.12112
C         13.18446       15.98843       -1.45593
C         12.71277       16.60794       -2.66535
C         11.57683       17.42061       -2.85320
O         10.80250       17.78330       -1.98681
S         11.41163       17.86030       -4.47211
C         12.80303       17.07649       -4.96986
O         13.22415       17.06693       -6.11355
C         13.41329       16.46205       -3.88849
C         14.62211       15.79356       -3.97217
C         15.15436       15.24871       -2.82350
C         16.40060       14.62822       -2.78905
O         17.15558       14.49968       -3.73470
S         16.74576       14.09269       -1.26543
C         15.29473       14.63614       -0.63726
O         15.04270       14.41593        0.50604
C         14.47428       15.29813       -1.58002
S         13.08064       17.76252        0.36571
C         13.84624       17.14582        1.66326
C         14.91986       17.78684        2.27328
C         15.73853       17.04154        3.11512
C         15.42806       15.69715        3.36170
C         16.36303       14.82960        4.02556
N         17.07940       14.08806        4.54996
C         14.26682       15.11086        2.82757
C         13.45496       15.82444        1.90303
C         11.65469       12.88850        1.89839
C         11.88570       13.20207        3.24632
O         11.98801       14.32274        3.70816
S         11.80366       11.87051        4.21641
C         11.31859       10.83772        2.99080
O         11.05264        9.68364        3.24119
C         11.21309       11.49433        1.72806
C          8.84823        9.22206       -0.59558
N          8.13198       10.15326       -1.25764
Se         6.74496        9.48588       -2.18780
N          7.20801        7.89092       -1.55637
C          8.28250        7.93556       -0.74943
C          6.81087        5.21954       -0.60852
C          6.22952        3.95537       -0.80334
C          7.02108        2.79248       -0.73495
C          5.38624       -0.91817       -1.36315
C          6.17046       -2.09016       -1.23715
C          5.59123       -3.34939       -1.46239
C          4.24202       -3.46533       -1.81011
C          3.45583       -2.32152       -1.93504
C          4.04443       -1.07394       -1.70832
H          1.70977        1.41696       -2.14442
H          1.35333       -0.18352       -1.39861
H          1.79855       -0.07488       -3.15036
H         10.71188        0.44550       -0.07385
H         10.67187        1.94369        0.91923
H         11.06159        2.03169       -0.84795
H         10.02448        4.23983       -0.02621
H         10.37416        6.16108        1.19018
H         11.37660        8.32038        1.48252
H         15.16356       15.72558       -4.90714
H         15.20297       18.79432        1.98836
H         16.65525       17.48252        3.48809
H         14.16899       14.05216        2.98488
H          6.13821        6.05802       -0.65119
H          5.18401        3.97938       -0.98532
H          7.19663       -2.12571       -0.97785
H          6.19438       -4.24356       -1.36618
H          3.80826       -4.44188       -1.98130
H          2.41152       -2.40898       -2.20322
