81

C          0.87834        0.56596        0.68986
C          0.75590        0.30447       -0.61687
C          1.70575       -0.45689       -1.39307
C          1.56594       -0.69351       -2.72091
C          2.70388       -1.49785       -3.16325
C          2.94374       -1.94217       -4.40384
C          4.08259       -2.74824       -4.81634
C          3.99061       -2.98475       -6.14549
C          4.96631       -3.74933       -6.92416
C          4.66730       -4.50020       -8.07616
F          3.39705       -4.53465       -8.51565
C          5.62709       -5.24296       -8.81484
F          5.18054       -5.89197       -9.90404
C          6.99817       -5.32908       -8.49032
C          7.97708       -6.07835       -9.24880
N          7.60518       -7.23079       -9.87291
N          8.50147       -8.04879      -10.65870
C          9.82510       -7.77795      -10.83741
C         10.64309       -8.63471      -11.67096
C         11.70089       -8.19304      -12.49518
F         11.97752       -6.88074      -12.56017
C         12.48947       -9.03139      -13.31513
F         13.48998       -8.44546      -13.99562
C         12.28404      -10.41346      -13.45194
C         13.06493      -11.31942      -14.29284
C         13.64903      -10.93544      -15.43892
C         14.44821      -11.78912      -16.28339
C         15.02303      -11.35997      -17.43438
C         15.75947      -12.47763      -18.01886
C         16.46393      -12.46539      -19.16014
C         17.19642      -13.58524      -19.73812
C         17.75992      -13.15314      -20.88360
C         17.42168      -11.75553      -21.08824
C         16.65548      -11.35346      -20.06955
F         16.14813      -10.12243      -19.91617
C         15.57066      -13.59080      -17.11508
F         16.08106      -14.81852      -17.27018
C         14.80521      -13.19415      -16.09524
C         11.24060      -10.91311      -12.63743
N         10.79079      -12.17436      -12.49084
N          9.80113      -12.03450      -11.59995
C          9.06670      -13.17748      -11.11178
N          9.55160      -10.81607      -11.11018
C         10.43363      -10.03438      -11.75814
C         10.25240       -6.59140      -10.20004
N         11.47381       -6.03801      -10.13067
O         11.32692       -4.84674       -9.46022
N         10.02367       -4.64352       -9.07505
C          9.33536       -5.73503       -9.44741
C          7.32008       -4.61906       -7.31106
N          8.48900       -4.54719       -6.65083
N          8.23485       -3.67536       -5.67482
C          9.27233       -3.25066       -4.76708
N          6.98687       -3.22521       -5.53864
C          6.33251       -3.81968       -6.55518
C          2.76471       -2.33917       -6.62639
C          2.15935       -1.73137       -5.59938
F          1.01933       -1.03259       -5.66758
C          3.51751       -1.71186       -1.98517
F          4.66470       -2.40063       -1.93778
C          2.94044       -1.10416       -0.94597
H          0.12149        1.14497        1.20935
H          1.72089        0.21970        1.27901
H         -0.11657        0.68524       -1.14444
H          0.75983       -0.35790       -3.35430
H          4.86222       -3.08675       -4.15200
H         13.13826      -12.34490      -13.93964
H         13.53961       -9.91039      -15.79270
H         14.95913      -10.36732      -17.85352
H         17.27267      -14.57946      -19.32581
H         18.36938      -13.73663      -21.55436
H         17.73961      -11.15627      -21.92570
H         14.49908      -13.80728      -15.26322
H          9.41236      -14.07990      -11.62199
H          8.00387      -13.01867      -11.31045
H          9.24722      -13.26358      -10.03725
H         10.22729       -3.68074       -5.07953
H          9.01217       -3.59936       -3.76512
H          9.32909       -2.15964       -4.79409
H          2.41346       -2.34986       -7.64555
H          3.32195       -1.09137        0.06087
