105

C          2.15693       -1.51379       -2.40082
C          2.73999       -0.47349       -1.46098
N          3.34398        0.63986       -2.17508
C          4.64396        0.67422       -2.60396
C          4.85129        1.89041       -3.22195
C          3.63427        2.62720       -3.14770
C          2.71958        1.82093       -2.49438
C          3.45586        3.97660       -3.68074
O          2.42192        4.61756       -3.53792
C          4.64497        4.45316       -4.42588
C          4.75440        5.68139       -5.07826
C          3.83490        6.78119       -5.10666
C          3.79953        7.70753       -6.08612
C          2.87969        8.80963       -6.06710
S          2.52541        9.58481       -4.57180
C          1.34514       10.60401       -5.25409
C          0.55169       11.53082       -4.54434
C         -0.39448       12.28795       -5.23126
C         -0.58856       12.08371       -6.58835
C         -1.55843       12.85868       -7.30479
N         -2.31875       13.48812       -7.91437
C          0.18088       11.12715       -7.27244
C          1.22890       10.40765       -6.63205
C          2.24040        9.46922       -7.12398
C          2.51531        9.11092       -8.50912
C          2.40763        9.83996       -9.63390
C          2.43390        9.18980      -10.99801
O          3.01720        8.18048      -11.32769
C          1.50678       10.01312      -11.82181
C          1.03531        9.77140      -13.09676
C         -0.03589       10.55629      -13.56338
C         -0.49129       10.37533      -14.98686
C         -0.68519       11.46085      -12.67801
C         -2.05510       12.02206      -12.96865
C         -0.10674       11.75976      -11.43054
C          1.03721       11.08482      -11.05198
C          1.92804       11.18976       -9.88287
C          2.49217       12.35047       -9.47523
C          3.71485       12.34811       -8.74315
N          4.74982       12.34613       -8.21863
C          2.00880       13.61533       -9.91657
N          1.58937       14.63690      -10.27556
S          6.28333        5.80113       -5.86153
C          6.76274        4.21416       -5.44763
C          7.96717        3.72263       -6.02854
C          8.06328        2.44596       -6.42952
C          9.24488        1.87416       -6.95580
C          9.41525        0.75224       -7.74962
C         10.81289        0.58877       -7.85008
N         11.76210       -0.22906       -8.39005
C         13.00262        0.24972       -8.02064
C         14.10082       -0.49176       -8.51368
C         15.29596       -0.64404       -7.93811
C         16.35196       -1.22657       -8.82769
O         16.21328       -1.84517       -9.86375
C         17.63733       -0.84631       -8.23150
C         18.88142       -1.06180       -8.80055
C         19.97845       -0.57403       -8.11041
F         21.20509       -0.76245       -8.61421
C         19.81261        0.11709       -6.90606
F         20.88863        0.59133       -6.26279
C         18.54366        0.32890       -6.34745
C         17.43175       -0.17837       -7.00669
C         15.96405       -0.22276       -6.69700
C         15.43745       -0.18135       -5.44949
C         14.10786       -0.62901       -5.16058
N         13.06712       -1.02766       -4.84822
C         16.20050        0.17110       -4.29689
N         16.82773        0.46841       -3.37253
C         12.83973        1.40826       -7.27842
C         11.43654        1.57408       -7.16179
N         10.48159        2.36603       -6.58873
C          5.86570        3.65106       -4.55239
C          6.07075        2.37601       -3.84046
O          7.13990        1.78865       -3.74096
H          1.70546       -2.33055       -1.82915
H          2.92987       -1.93991       -3.04949
H          1.38492       -1.07766       -3.04334
H          3.51654       -0.92013       -0.82949
H          1.96592       -0.06682       -0.80248
H          5.31862       -0.15986       -2.44840
H          1.68184        1.99614       -2.23738
H          3.13391        6.84073       -4.27603
H          4.45398        7.63208       -6.94918
H          0.67822       11.65436       -3.47073
H         -0.98730       13.02010       -4.68508
H         -0.05429       10.92913       -8.31257
H          2.82619        8.07395       -8.65955
H          1.47620        8.98853      -13.70759
H          0.35277       10.08293      -15.62244
H         -0.85908       11.31771      -15.40574
H         -1.27205        9.61477      -15.05370
H         -2.24275       12.93038      -12.38653
H         -2.81000       11.27840      -12.68564
H         -2.19248       12.28028      -14.01980
H         -0.58144       12.47961      -10.76712
H          8.78428        4.42263       -6.18382
H          7.21131        1.77401       -6.35024
H          8.63666        0.12917       -8.16697
H         11.53608       -1.04937       -8.93912
H         13.95702       -0.93163       -9.50407
H         18.99469       -1.58138       -9.74678
H         18.49194        0.88424       -5.41769
H         13.60707        2.04838       -6.87142
H         10.68654        3.13144       -5.96321
