116

C         -0.38240       -3.51793       13.88921
C         -1.75066       -3.68844       13.74510
C         -2.57801       -4.35789       14.74356
O         -2.14624       -4.79511       15.79406
S         -4.23839       -4.42734       14.23452
C         -3.89076       -3.54118       12.75708
O         -4.75648       -3.23211       11.96196
C         -2.45556       -3.21914       12.62609
C         -1.79755       -2.53996       11.56962
C         -0.41959       -2.32673       11.77100
C          0.24386       -2.81949       12.87499
C          1.64532       -2.48917       12.78572
O          2.50630       -2.80980       13.56681
O          1.77664       -1.76649       11.65094
C          0.59328       -1.58626       11.00968
O          0.44510       -0.91823       10.00983
C         -2.51566       -2.07743       10.35991
C         -1.97546       -2.09573        9.13080
C         -2.68940       -1.63122        7.91939
N         -3.70559       -0.80652        7.88354
C         -3.97992       -0.71166        6.55356
C         -3.06495       -1.52676        5.79461
C         -3.42149       -1.44796        4.35636
O         -2.92021       -2.00306        3.39975
C         -4.56979       -0.52647        4.37070
C         -4.84277       -0.12496        5.72794
N         -5.91128        0.71305        5.74994
C         -6.23881        0.80014        4.48943
C         -5.42703        0.02816        3.52536
C         -2.18653       -2.11916        6.59018
C         -1.13897       -3.05058        6.30951
C         -0.41727       -3.03702        5.17964
C          0.62260       -4.00221        4.88176
C          1.86770       -3.53405        4.60444
C          2.91870       -4.46198        4.23437
C          4.23571       -4.27103        3.93695
C          5.06025       -2.98191        3.98373
C          5.70056       -2.77632        5.38471
N          6.64166       -3.82536        5.78406
C          6.10575       -2.81740        2.84227
N          6.87956       -1.56504        2.86008
C          4.72141       -5.61703        3.60309
C          5.91483       -6.07025        3.19815
C          6.20287       -7.53215        2.94369
C          5.01106       -8.44973        3.14329
C          3.80762       -8.00927        3.54414
C          3.65177       -6.59727        3.77246
C          2.57641       -5.90209        4.15448
C          1.25214       -6.36533        4.47622
C          0.33150       -5.44970        4.82326
C          7.37989       -7.92191        3.79058
C          7.35206       -8.38323        5.05293
C          8.64725       -8.69187        5.68776
N          9.81535       -8.51751        5.11265
C         10.69207       -8.99218        6.02591
C          9.99350       -9.47720        7.18163
C         10.96941       -9.94036        8.19187
O         10.76551      -10.37339        9.30459
C         12.26022       -9.69476        7.50547
C         12.00055       -9.11704        6.20740
N         13.16676       -8.85203        5.57300
C         14.06053       -9.25704        6.42617
C         13.56284       -9.82001        7.70667
C          8.68864       -9.29346        7.05653
C          7.69095       -9.47032        8.05565
C          7.26132      -10.66634        8.48824
C          6.42392      -10.86739        9.68813
C          5.37301      -10.02242       10.10587
C          4.80822       -8.87170        9.36623
O          5.08060       -8.53779        8.23002
S          3.62323       -8.00665       10.30414
C          3.60596       -9.24962       11.52261
O          2.73822       -9.29231       12.37164
C          4.70560      -10.21926       11.33361
C          5.06160      -11.25431       12.21940
C          6.03985      -12.13491       11.74616
C          6.68337      -11.95826       10.53441
C          7.62067      -13.07055       10.38272
O          8.32287      -13.32339        9.42675
O          7.51103      -13.82011       11.50642
C          6.59226      -13.33157       12.37109
O          6.28387      -13.81767       13.43922
C          4.47085      -11.45468       13.55070
C          4.26991      -10.47872       14.44601
H          0.16167       -3.88799       14.75455
H         -3.54610       -1.74132       10.47768
H         -0.96623       -2.44244        8.95100
H         -7.07495        1.40697        4.11170
H         -5.52802       -0.05231        2.46127
H         -0.92331       -3.79736        7.06955
H         -0.59291       -2.30065        4.39766
H          2.09033       -2.47294        4.62439
H          4.35660       -2.14670        3.85270
H          4.91474       -2.69503        6.14464
H          6.23574       -1.82051        5.41416
H          6.12009       -4.69654        5.90508
H          7.02725       -3.60320        6.70016
H          5.60605       -2.90189        1.87098
H          6.86642       -3.58951        2.88758
H          7.45331       -1.56773        3.70788
H          7.57192       -1.62063        2.10921
H          6.76868       -5.42884        3.06485
H          6.49674       -7.62762        1.88956
H          5.15717       -9.50486        2.93352
H          2.97222       -8.68434        3.67927
H          1.01334       -7.42069        4.43045
H         -0.68283       -5.77085        5.04816
H          8.34166       -7.73565        3.31076
H          6.43004       -8.54157        5.59947
H         15.14345       -9.20070        6.26190
H         14.12574      -10.19436        8.53564
H          7.38981       -8.53890        8.52703
H          7.64243      -11.56313        7.99742
H          4.22456      -12.47577       13.84115
H          4.49457       -9.43418       14.25535
H          3.81847      -10.70159       15.40921
