150

C          5.04801        2.19610       -3.75145
C          3.70729        1.69545       -4.38607
C          3.61828        0.47708       -5.08883
C          2.42862        0.06915       -5.71169
C          1.27754        0.84177       -5.61067
C          1.31127        2.01785       -4.87722
C          2.50309        2.43184       -4.27080
C          6.38064        1.71441       -4.41626
C          6.48202        1.48760       -5.80732
C          7.67955        1.06760       -6.40519
C          8.82577        0.90087       -5.63795
C          8.78486        1.20076       -4.28479
C          7.58918        1.62941       -3.69655
C          4.98659        2.15477       -2.18224
C          4.74002        3.34676       -1.56970
C          4.58836        4.52021       -2.43918
C          4.07822        5.74571       -2.15467
C          3.48200        6.06240       -0.90389
N          2.95710        6.31403        0.10137
C          4.03428        6.79198       -3.12471
N          3.98559        7.65611       -3.89838
S          5.15833        4.12684       -4.05536
C          4.80478        3.49521       -0.15265
N          4.93203        3.61607        0.99253
C          5.38253        0.93760       -1.43844
C          6.46408        0.95360       -0.60845
C          7.01583       -0.37661       -0.46168
C          8.17417       -0.70121        0.28293
N          9.12316       -0.98492        0.88663
C          6.30362       -1.23419       -1.20550
C          5.13209       -0.50355       -1.69320
C          3.96762       -1.10672       -2.00692
C          3.73969       -2.49377       -2.45816
C          2.40252       -2.66995       -2.48595
C          1.73392       -1.45077       -2.08942
C          2.64675       -0.50426       -1.81795
C          0.32782       -1.34119       -1.99308
N         -0.82958       -1.28701       -1.93169
C          4.66262       -3.50774       -2.89282
C          4.46567       -4.31033       -3.94864
C          5.39420       -5.35624       -4.34986
C          5.32509       -5.80296       -5.63332
C          6.04509       -7.00302       -6.00340
C          6.00541       -7.76382       -7.13076
C          5.35243       -7.47558       -8.47602
C          6.16232       -8.03577       -9.68552
N          5.65372       -7.71102      -11.02585
C          3.85399       -7.85351       -8.51597
N          3.57333       -9.26637       -8.28429
C          6.68665       -8.99859       -6.72747
C          6.60261      -10.25124       -7.19578
C          7.25137      -11.41983       -6.47174
C          8.07297      -11.05384       -5.25419
C          8.13318       -9.80643       -4.77266
C          7.34165       -8.81658       -5.44004
C          6.90014       -7.64487       -4.98533
C          7.05440       -7.08164       -3.67765
C          6.29816       -6.01730       -3.37489
C          8.12321      -12.16708       -7.42402
C          8.17507      -13.50283       -7.42479
C          8.92770      -14.25330       -8.37773
C         10.02474      -14.92843       -7.97652
C         10.54273      -15.70270       -9.07464
C         11.66289      -16.55761       -8.96879
N         12.59139      -17.24907       -8.86999
C          9.77441      -15.50947      -10.15986
C          8.72134      -14.53761       -9.82727
C          7.77189      -14.01531      -10.64895
C          7.47995      -14.29882      -12.08683
C          6.41567      -13.53033      -12.41895
C          6.01114      -12.70741      -11.30742
C          6.78967      -12.99459      -10.25794
C          5.01395      -11.70734      -11.37974
N          4.21004      -10.87454      -11.47944
C          8.13090      -15.15579      -13.04998
C          7.75579      -15.36840      -14.32158
C          8.49754      -16.24001      -15.22187
C          8.70134      -17.56397      -15.00926
C          9.49442      -18.24434      -16.03427
C         10.12145      -19.45521      -15.98192
C         10.15803      -20.25749      -14.80356
N         10.22499      -20.91324      -13.85602
C         10.85283      -19.96883      -17.09723
N         11.43602      -20.40774      -17.98885
S          9.61847      -17.21196      -17.46313
C          9.07823      -15.62578      -16.51935
C         10.41619      -14.85787      -16.27145
C         10.97542      -13.99215      -17.23215
C         12.14460      -13.26452      -16.98145
C         12.85835      -13.47144      -15.80880
C         12.40655      -14.41176      -14.89361
C         11.20112      -15.08668      -15.11753
C          7.95009      -14.93627      -17.35125
C          6.80323      -15.67040      -17.74001
C          5.80478      -15.11315      -18.54755
C          5.92734      -13.80832      -19.00581
C          7.00394      -13.03852      -18.58722
C          7.96869      -13.58025      -17.72802
C          8.12276      -18.24269      -13.89815
N          7.64646      -18.77733      -12.98571
H          4.48093       -0.17903       -5.18874
H          2.40417       -0.85427       -6.28575
H          0.35674        0.52985       -6.09823
H          0.41314        2.62606       -4.78623
H          2.45328        3.36757       -3.72390
H          5.62965        1.65166       -6.46524
H          7.71975        0.88513       -7.47684
H          9.75542        0.57513       -6.09796
H          9.68885        1.12482       -3.68443
H          7.65102        1.93337       -2.65983
H          7.02273        1.81916       -0.27665
H          6.51784       -2.28419       -1.25735
H          1.87974       -3.56750       -2.78749
H          2.44262        0.47543       -1.41770
H          5.57681       -3.61247       -2.32972
H          3.55676       -4.22388       -4.53966
H          4.65747       -5.35946       -6.36223
H          5.38183       -6.38165       -8.60212
H          6.24127       -9.12339       -9.64323
H          7.18818       -7.65222       -9.63067
H          5.11554       -8.51741      -11.36535
H          4.98383       -6.94677      -10.98633
H          3.43004       -7.57465       -9.48766
H          3.30745       -7.26107       -7.77250
H          3.75234       -9.48115       -7.30334
H          2.58256       -9.44550       -8.44266
H          5.98061      -10.48624       -8.05180
H          6.42949      -12.06520       -6.12905
H          8.61923      -11.84781       -4.75372
H          8.72213       -9.55640       -3.89983
H          7.68809       -7.56048       -2.94121
H          6.33395       -5.64790       -2.35633
H          8.68292      -11.58712       -8.15639
H          7.65155      -14.07776       -6.66280
H         10.43955      -14.94173       -6.97746
H          9.94482      -16.02082      -11.08712
H          5.91242      -13.47172      -13.37077
H          6.70283      -12.48193       -9.32385
H          9.02471      -15.65084      -12.71201
H          6.88751      -14.87412      -14.75156
H         10.50918      -13.85598      -18.20585
H         12.50375      -12.54619      -17.71479
H         13.77837      -12.92340      -15.62337
H         12.99361      -14.62489      -14.00316
H         10.91256      -15.81566      -14.36661
H          6.66639      -16.70201      -17.42102
H          4.93934      -15.70684      -18.83212
H          5.17954      -13.38674      -19.67260
H          7.09937      -12.00977      -18.92870
H          8.73957      -12.89747      -17.38341
