118

C         -2.27568        1.75737        9.05233
C         -1.58030        1.76207       10.26185
F         -1.58499        2.87233       11.01293
C         -0.89363        0.63697       10.69300
F         -0.23635        0.64758       11.86073
C         -0.88222       -0.51472        9.92146
C         -1.57395       -0.54261        8.70489
C         -2.29221        0.60380        8.25032
C         -3.00626        0.55625        7.02306
C         -2.99985       -0.61099        6.26327
C         -2.28003       -1.70850        6.75520
C         -1.56935       -1.70500        7.94121
C         -2.42597       -2.87732        5.88372
O         -1.78608       -3.90244        5.98301
C         -3.47590       -2.50665        4.88466
C         -3.63670       -1.02918        4.97181
C         -4.10818       -0.20231        4.00478
C         -4.55986       -0.67737        2.74230
N         -4.93768       -1.06969        1.71142
C         -4.13040        1.21533        4.14866
N         -4.15207        2.36747        4.27178
C         -4.17916       -3.41590        4.19046
C         -4.05728       -4.85665        4.21824
C         -3.76096       -5.58109        3.11778
C         -3.78911       -7.00666        3.46266
C         -4.22585       -7.05862        4.86654
C         -4.34071       -5.78975        5.30197
C         -4.52481       -8.18517        5.66872
N         -4.82648       -9.08904        6.33328
C         -3.41749       -8.01474        2.64422
C         -3.45541       -9.43983        2.96576
C         -2.85880      -10.14783        1.97792
C         -2.42621       -9.18064        0.97289
C         -2.80934       -7.93789        1.31366
C         -2.55322       -6.81124        0.49937
N         -2.33754       -5.91523       -0.20618
C         -2.77919      -11.59338        1.98221
N         -2.89419      -12.43008        0.85630
C         -3.12980      -12.04941       -0.52330
C         -4.50416      -11.44174       -0.75636
C         -2.83796      -13.79856        1.21741
O         -2.91256      -14.79501        0.52719
C         -2.68983      -13.74761        2.67702
C         -2.63799      -12.36738        3.06997
C         -2.46469      -12.33481        4.53903
O         -2.34283      -11.35173        5.23910
N         -2.45011      -13.70036        4.88685
C         -2.33245      -14.15822        6.26114
C         -3.67740      -14.32861        6.95298
C         -2.58760      -14.51337        3.76362
C         -2.55629      -15.94307        3.83273
C         -3.52266      -16.74539        3.36486
C         -3.42829      -18.18046        3.42237
C         -3.28853      -18.89549        4.55900
C         -3.27166      -20.32137        4.21523
C         -3.35531      -20.36777        2.74549
C         -3.46214      -19.10483        2.30191
C         -3.29517      -21.49572        1.89188
N         -3.23719      -22.43005        1.20959
C         -3.25930      -21.33853        5.10463
C         -3.39483      -22.75864        4.77479
C         -3.51343      -23.45599        5.92260
C         -3.39776      -22.52797        7.03530
C         -3.21225      -21.27993        6.57353
C         -2.96822      -20.17070        7.41594
N         -2.78057      -19.26027        8.11087
C         -3.76349      -24.86966        5.98961
C         -3.00860      -25.86953        5.51448
C         -3.65759      -27.21821        5.41980
O         -4.68805      -27.59139        5.94056
C         -2.81637      -28.00182        4.50555
C         -3.05335      -29.30991        4.11109
C         -2.12535      -29.91971        3.26127
C         -1.01204      -29.16966        2.77944
C         -0.07812      -29.79484        1.94004
C         -0.22770      -31.13634        1.60338
C         -1.30939      -31.86521        2.07609
C         -2.26327      -31.26579        2.89232
F         -1.43920      -33.16058        1.75946
F          0.69377      -31.72294        0.82751
C         -0.83476      -27.82729        3.17268
C         -1.71093      -27.24885        4.08200
C         -1.70447      -25.95572        4.83713
C         -0.60152      -25.19660        5.05733
C         -0.51661      -24.22546        6.09670
N         -0.37414      -23.46204        6.96113
C          0.62421      -25.38042        4.35374
N          1.62029      -25.51439        3.77459
H         -2.79784        2.66229        8.75437
H         -0.33742       -1.38242       10.28444
H         -3.55788        1.44007        6.71649
H         -1.04747       -2.60372        8.25955
H         -4.97540       -3.10117        3.52158
H         -3.57270       -5.15676        2.14597
H         -4.64699       -5.49156        6.29421
H         -3.90589       -9.87538        3.84312
H         -1.86266       -9.41970        0.08434
H         -3.04941      -12.94564       -1.15168
H         -2.33291      -11.37839       -0.85472
H         -5.29564      -12.11261       -0.40812
H         -4.65872      -11.25021       -1.82306
H         -4.62227      -10.49103       -0.23140
H         -1.74003      -13.42364        6.81738
H         -1.77861      -15.10218        6.28553
H         -4.22289      -13.38076        7.00223
H         -3.52814      -14.68685        7.97754
H         -4.30931      -15.05472        6.43145
H         -1.66684      -16.37202        4.28962
H         -4.41662      -16.33827        2.89700
H         -3.24922      -18.45904        5.54310
H         -3.52493      -18.78372        1.27095
H         -3.46800      -23.19466        3.79270
H         -3.38909      -22.83291        8.07275
H         -4.74006      -25.10777        6.42016
H         -3.92426      -29.84089        4.48747
H          0.78807      -29.25941        1.55877
H         -3.09518      -31.86783        3.24802
H          0.01397      -27.28479        2.76904
