105

C         -3.85325       -0.11610       -5.04385
C         -4.58208       -0.26334       -6.22191
F         -4.25449        0.47509       -7.29083
C         -5.63001       -1.16953       -6.29674
F         -6.31084       -1.32315       -7.44040
C         -5.98331       -1.93022       -5.18905
C         -5.27210       -1.79164       -3.98940
C         -4.17216       -0.88402       -3.91308
C         -3.40991       -0.78572       -2.72533
C         -3.73978       -1.57021       -1.62676
C         -4.84660       -2.42505       -1.73354
C         -5.61971       -2.55436       -2.87455
C         -4.99798       -3.23300       -0.51985
O         -5.97910       -3.87793       -0.21835
C         -3.72269       -3.03412        0.24226
C         -3.10677       -1.79558       -0.29100
C         -2.24678       -0.96947        0.35270
C         -1.78658       -1.23639        1.67493
N         -1.40775       -1.47213        2.74622
C         -1.77946        0.24855       -0.21797
N         -1.39867        1.23604       -0.69332
C         -3.19094       -3.98074        1.03389
C         -3.80653       -5.24832        1.23908
C         -4.68355       -5.64607        2.24662
C         -4.99850       -7.01692        2.13631
C         -4.41721       -7.58586        1.02541
S         -3.44681       -6.56192        0.14806
C         -4.82003       -8.93612        0.94287
C         -5.64465       -9.22489        2.00605
C         -5.77822       -8.03188        2.84511
C         -6.41904       -7.90504        4.02332
C         -7.09976       -8.99801        4.62520
N         -7.65298       -9.88721        5.12501
C         -6.41746       -6.68182        4.74656
N         -6.41011       -5.68368        5.34357
C         -6.10965      -10.55887        1.95478
C         -5.62379      -11.23338        0.82828
S         -4.55602      -10.20180       -0.09349
C         -5.87520      -12.60931        0.37281
C         -5.88606      -13.03314       -0.97198
F         -5.68688      -12.13316       -1.95039
C         -6.12303      -14.36533       -1.39249
F         -6.11464      -14.57228       -2.72069
C         -6.38393      -15.44550       -0.52288
C         -6.40570      -15.05992        0.84121
C         -6.15351      -13.66062        1.28352
N         -6.23499      -13.64006        2.62756
N         -6.51870      -14.90995        2.93619
N         -6.62721      -15.80010        1.94387
C         -6.69140      -15.32221        4.30914
C         -6.63196      -16.83426       -0.94100
C         -7.40857      -17.83328       -0.33903
C         -7.42683      -19.01705       -1.11273
C         -6.65071      -18.89050       -2.24117
S         -5.88407      -17.43279       -2.40207
C         -6.77713      -20.05623       -3.02244
C         -7.65612      -20.91227       -2.40302
C         -8.05332      -20.34166       -1.11321
C         -8.76968      -20.92696       -0.13393
C         -9.25169      -22.25940       -0.26076
N         -9.63187      -23.35076       -0.36541
C         -9.03264      -20.26788        1.09821
N         -9.24626      -19.73916        2.10917
C         -7.95009      -22.02228       -3.22370
C         -7.29392      -21.94012       -4.46027
S         -6.15101      -20.61834       -4.45214
C         -7.43406      -22.84081       -5.56021
C         -7.31210      -22.57437       -6.87019
C         -7.28569      -23.75619       -7.80081
O         -7.65760      -24.88954       -7.57980
C         -6.65784      -23.27500       -9.04289
C         -6.36761      -24.03654      -10.16384
C         -5.72221      -23.41077      -11.23695
C         -5.32386      -22.04417      -11.12294
C         -4.64910      -21.43838      -12.19380
C         -4.40640      -22.15262      -13.36332
C         -4.81942      -23.47169      -13.48244
C         -5.46510      -24.10800      -12.42702
F         -4.60328      -24.14557      -14.62022
F         -3.77861      -21.54827      -14.38121
C         -5.63392      -21.30838       -9.96016
C         -6.35927      -21.90910       -8.94003
C         -7.00607      -21.39622       -7.69581
C         -7.52693      -20.14858       -7.57753
C         -8.52444      -19.83187       -6.60887
N         -9.36294      -19.57006       -5.84781
C         -7.22025      -19.09429       -8.48613
N         -6.95155      -18.24171       -9.22618
H         -3.03518        0.59958       -5.02950
H         -6.80661       -2.63398       -5.28151
H         -2.55087       -0.12083       -2.71566
H         -6.44168       -3.26558       -2.89309
H         -2.20502       -3.87095        1.47397
H         -5.04658       -4.95787        2.99985
H         -6.77646      -11.02639        2.67005
H         -6.51884      -14.46976        4.97100
H         -5.96799      -16.11292        4.52305
H         -7.71255      -15.69142        4.43085
H         -7.95081      -17.67196        0.58579
H         -8.65295      -22.81578       -2.99510
H         -7.66195      -23.87008       -5.27419
H         -6.65356      -25.08496      -10.19707
H         -4.32109      -20.40302      -12.14337
H         -5.77400      -25.14214      -12.55551
H         -5.31613      -20.27119       -9.89546
