86

C        -14.74475        0.55534       -1.77921
C        -14.86683       -0.05184       -0.57213
C        -16.10261       -0.13151        0.12846
N        -17.10953       -0.20480        0.70514
C        -13.78513       -0.68874        0.10816
N        -12.91906       -1.20777        0.67949
C        -15.83167        1.24823       -2.55761
C        -15.32590        1.61632       -3.80776
C        -16.06138        2.25708       -4.79892
C        -17.39801        2.59604       -4.50538
C        -17.91200        2.27088       -3.24179
C        -17.14611        1.59052       -2.25649
S        -19.54296        2.81891       -3.07739
C        -19.54884        3.47094       -4.63408
C        -18.37624        3.27170       -5.31114
Br       -21.01158        4.38948       -5.35873
C        -13.90946        1.26507       -3.92557
O        -13.19435        1.47087       -4.88720
C        -13.53748        0.61156       -2.63186
C        -12.27487        0.20064       -2.45500
N        -11.22190        0.30567       -3.33861
C         -9.94484       -0.14232       -3.18836
S         -9.55163       -1.49912       -2.19934
C         -7.94781       -1.51189       -2.72559
N         -7.05244       -2.54933       -2.28995
O         -5.91318       -2.52411       -2.77253
O         -7.46959       -3.39145       -1.48392
C         -7.65401       -0.46257       -3.56724
C         -8.80279        0.36406       -3.80067
C         -8.74188        1.56436       -4.59213
C         -9.50498        2.65867       -4.41902
C         -9.35555        3.78423       -5.26456
O         -8.17850        4.09891       -5.92976
C        -10.24733        4.75709       -5.62387
C        -11.60452        5.16620       -5.43603
O        -12.44864        4.66980       -4.71271
N        -11.73326        6.27782       -6.24687
C        -10.57278        6.63733       -6.90435
O        -10.39394        7.58794       -7.64305
C         -9.62700        5.64127       -6.50874
C         -8.33369        5.24359       -6.70775
C         -7.30633        5.77963       -7.52199
C         -6.08740        5.22009       -7.50091
C         -4.96707        5.65444       -8.32976
C         -4.37128        6.99674       -8.19806
C         -4.79497        7.99053       -7.39716
S         -3.77293        9.35268       -7.61985
F         -2.97439        9.61395       -6.28528
C         -2.73051        8.60180       -8.76095
C         -3.18052        7.36009       -8.97974
C         -2.60166        6.39536       -9.87840
C         -3.18868        5.19120       -9.98868
C         -4.39636        4.78977       -9.22814
C         -4.92334        3.43873       -9.46014
C         -6.14148        3.17091       -9.96237
C         -6.58241        1.85397      -10.24091
S         -8.25489        1.38067      -10.24156
C         -7.90919       -0.26736      -10.69262
C         -6.57134       -0.37915      -10.83892
C         -5.85610        0.77139      -10.59591
O         -4.50405        0.70186      -10.75209
C         -4.38768       -0.62455      -11.11417
N         -3.04520       -1.06842      -11.35027
O         -2.90836       -2.26600      -11.63665
O         -2.13383       -0.23675      -11.25279
C         -5.59601       -1.32965      -11.18743
H        -15.60704        2.50432       -5.75434
H        -17.61553        1.38031       -1.30213
H        -18.19768        3.61023       -6.32476
H        -11.95743       -0.25467       -1.52754
H        -11.46862        0.79819       -4.20815
H         -6.66835       -0.28446       -3.98334
H         -7.98283        1.58000       -5.37517
H        -10.26079        2.71445       -3.64177
H        -12.58786        6.80182       -6.32193
H         -7.52921        6.62403       -8.16869
H         -5.87237        4.36840       -6.85578
H         -5.63025        7.98264       -6.71517
H         -4.41395       10.43868       -8.08887
H         -1.87306        9.08230       -9.20572
H         -1.71269        6.64439      -10.44611
H         -2.76508        4.45001      -10.66295
H         -4.21146        2.64545       -9.24156
H         -6.82992        3.98757      -10.16648
H         -8.69990       -0.99379      -10.81958
H         -5.71583       -2.36992      -11.45660
