91

C         -3.90727        0.56003        2.21960
C         -3.30357       -0.48318        1.59433
C         -2.66660       -1.54092        2.30730
N         -2.14697       -2.39798        2.87590
C         -3.26808       -0.65606        0.17874
N         -3.22651       -0.81939       -0.97156
C         -4.04813        0.75001        3.70214
C         -4.90845        1.82276        3.93679
C         -5.28988        2.27649        5.19657
C         -4.75925        1.61414        6.32217
C         -3.87689        0.54238        6.10796
C         -3.50613        0.09825        4.81190
S         -3.33720       -0.11415        7.61576
C         -4.25447        0.99060        8.50405
C         -4.96771        1.85815        7.72081
Br        -4.28886        1.02587       10.37638
C         -5.34480        2.42977        2.68097
O         -6.13623        3.34727        2.61293
C         -4.63788        1.68585        1.58018
C         -4.70475        2.06858        0.29478
C         -5.39650        3.22963       -0.21529
C         -5.84193        3.31433       -1.47668
C         -6.46187        4.50947       -1.92077
O         -7.08329        5.40288       -1.07403
C         -7.56198        6.47581       -1.78783
C         -7.21272        6.26746       -3.11358
C         -6.57079        5.02627       -3.19593
O         -6.09644        4.44927       -4.31383
O         -7.46025        7.07998       -4.15999
C         -8.28366        7.54334       -1.19855
C         -9.03785        7.35860       -0.10036
C         -9.92824        8.35227        0.48204
C        -10.16878        9.54106       -0.08222
N        -11.05222       10.53830        0.24464
C        -11.25247       11.68522       -0.47146
S        -11.60706       13.14260        0.38528
C        -11.57607       14.04943       -1.03536
N        -11.79793       15.45647       -0.98163
O        -12.71965       15.89284       -1.68263
O        -11.03108       16.12534       -0.27855
C        -11.38506       13.30167       -2.16774
C        -11.22715       11.91087       -1.85366
C        -11.06989       10.86928       -2.84062
C        -10.93924       11.03546       -4.16533
C        -10.67963        9.93342       -5.07662
C        -10.09905       10.06148       -6.27986
C         -9.74252        8.96343       -7.14714
C         -8.90200        9.31680       -8.13276
C         -8.52537       10.72114       -8.09869
S         -9.54111       11.57576       -6.94421
C         -7.48330       11.29552       -8.72822
C         -6.51400       10.63081       -9.57771
C         -5.38474       11.33473       -9.75028
C         -5.39652       12.61569       -9.07583
S         -6.99431       12.97116       -8.46952
C         -4.31380       13.38951       -8.90343
C         -4.34618       14.61405       -8.20072
S         -4.59122       16.16562       -8.92727
C         -4.44711       17.01911       -7.41217
C         -4.23181       16.10360       -6.44292
C         -4.16069       14.79819       -6.87771
O         -3.90017       13.84276       -5.94048
C         -3.81111       14.65559       -4.82943
N         -3.50974       13.96506       -3.62068
O         -4.29258       14.13351       -2.67798
O         -2.47245       13.29126       -3.60666
C         -4.01489       16.02082       -5.05596
H         -5.96818        3.11935        5.30033
H         -2.80788       -0.72329        4.73810
H         -5.61020        2.63757        8.11301
H         -4.18745        1.52717       -0.48829
H         -5.51826        4.08067        0.45413
H         -5.73597        2.49830       -2.18454
H         -6.28907        5.04812       -5.05959
H         -7.76678        7.95069       -3.85374
H         -8.24221        8.49374       -1.71288
H         -9.06810        6.37883        0.37857
H        -10.47496        8.04320        1.36968
H         -9.59078        9.82050       -0.95354
H        -11.41579       10.48680        1.19371
H        -11.37013       13.73152       -3.16246
H        -11.02825        9.84580       -2.47962
H        -10.98336       12.03038       -4.59829
H        -10.92373        8.93606       -4.71421
H        -10.09067        7.95243       -6.98409
H         -8.50284        8.61437       -8.85023
H         -6.66544        9.64366       -9.99036
H         -4.53188       10.97983      -10.31215
H         -3.34750       13.06059       -9.27349
H         -4.52080       18.09669       -7.37017
H         -3.97651       16.81028       -4.31802
