110

C         15.84178        4.40664       -7.85871
C         16.01263        3.24967       -7.21691
C         17.03115        2.97277       -6.24026
C         16.86828        1.79114       -5.62812
C         15.70338        1.04918       -6.08700
S         14.96085        1.88673       -7.45443
C         15.19557       -0.06772       -5.53231
C         15.66752       -0.71519       -4.32190
C         14.86473       -1.69968       -3.89044
C         13.75080       -1.96278       -4.77249
S         13.77848       -0.91172       -6.15993
C         12.85721       -2.94511       -4.57437
C         11.95219       -3.47733       -5.60283
C         12.58531       -4.40507       -6.46830
C         11.89644       -5.08055       -7.47949
C         12.63064       -5.97667       -8.44322
N         12.86602       -5.31544       -9.72247
C         10.52794       -4.85771       -7.59286
C          9.89535       -3.92111       -6.76668
C         10.59088       -3.17430       -5.77915
C          9.81426       -1.99719       -5.20254
N         10.09243       -1.57566       -3.83553
C          9.47700       -0.48623       -3.22542
C          8.40362        0.21670       -3.62457
C          7.80120        1.33102       -2.86260
C          8.44615        2.58589       -2.90077
C          7.87726        3.73962       -2.32118
C          8.67086        5.02696       -2.28277
N          7.86374        6.24296       -2.34558
C          6.62291        3.62538       -1.71976
C          5.98600        2.38817       -1.65144
C          6.57972        1.21532       -2.16666
C          5.78413       -0.06168       -1.98412
N          6.57999       -1.21156       -1.56471
C          6.01717       -2.41846       -1.18228
C          4.83560       -2.62844       -0.58577
C          4.16696       -3.94206       -0.46264
C          4.91435       -5.10207       -0.15829
C          4.30566       -6.36361       -0.04073
C          5.11611       -7.60735        0.24310
N          5.69483       -8.18329       -0.96149
C          2.92408       -6.45708       -0.23525
C          2.16925       -5.32417       -0.55207
C          2.76663       -4.05506       -0.67798
C          1.87078       -2.87867       -1.05817
N          1.83717       -2.48167       -2.48903
C          2.99348       -2.43589       -3.25258
C          3.63000       -3.52451       -3.68992
C          5.02986       -3.56813       -4.05660
C          5.75418       -4.69460       -3.98797
C          7.18818       -4.80895       -4.12401
C          7.59769       -6.07683       -4.28978
C          6.49437       -7.02046       -4.31135
S          5.06987       -6.26213       -3.63929
C          6.41464       -8.17232       -4.99742
C          7.36198       -8.59335       -6.01073
C          6.75677       -9.24257       -7.02062
C          5.34376       -9.44066       -6.78977
S          4.93245       -9.12369       -5.13400
C          4.41463       -9.73187       -7.70245
H         16.49102        5.25652       -7.68407
H         15.02543        4.54205       -8.56227
H         17.83234        3.66424       -6.02057
H         17.53764        1.42934       -4.86102
H         16.56477       -0.41557       -3.79908
H         15.06853       -2.29105       -3.00431
H         12.90750       -3.55869       -3.67731
H         13.65781       -4.57963       -6.36614
H         12.05992       -6.89763       -8.60393
H         13.59571       -6.28196       -8.02218
H         11.97207       -5.04661      -10.12983
H         13.36043       -4.43881       -9.55365
H          9.94990       -5.37671       -8.35475
H          8.83348       -3.74229       -6.93458
H          8.74841       -2.25638       -5.23305
H          9.95387       -1.15178       -5.88651
H         11.07780       -1.63076       -3.59010
H          9.96128       -0.23445       -2.28114
H          7.89567       -0.01691       -4.55519
H          9.41167        2.66763       -3.39968
H          9.37107        5.05472       -3.12358
H          9.26324        5.04000       -1.36055
H          7.31107        6.32932       -1.49653
H          7.20745        6.16760       -3.12024
H          6.12471        4.48495       -1.27988
H          5.00602        2.34417       -1.17669
H          5.25285       -0.27019       -2.91765
H          5.02685        0.11847       -1.21093
H          7.35972       -1.37623       -2.19953
H          6.63087       -3.25803       -1.50481
H          4.25429       -1.77245       -0.27050
H          5.99463       -5.03752       -0.03777
H          4.47915       -8.35569        0.72819
H          5.92070       -7.37634        0.94890
H          4.99671       -8.17950       -1.70671
H          5.94012       -9.15705       -0.80149
H          2.42501       -7.42036       -0.15626
H          1.09980       -5.44134       -0.71425
H          2.12140       -2.00582       -0.44654
H          0.83765       -3.12237       -0.78066
H          1.34659       -1.59204       -2.55509
H          3.40195       -1.43999       -3.33200
H          3.10957       -4.46633       -3.54975
H          5.52713       -2.62044       -4.23248
H          7.85204       -3.96227       -4.05194
H          8.63145       -6.37409       -4.38930
H          8.39656       -8.28466       -6.02403
H          7.24474       -9.53159       -7.93887
H          4.66077       -9.85321       -8.74903
H          3.36490       -9.79621       -7.42600
