87

C         10.29664       -1.26381       -4.90923
C          9.36910       -0.92974       -4.00909
C          9.32078        0.32020       -3.30211
C          8.40328        0.33876       -2.32700
C          7.65201       -0.90539       -2.18896
S          8.08042       -1.99760       -3.51356
C          6.85237       -1.22972       -1.15831
C          6.67210       -0.44358        0.04786
C          6.22636       -1.16493        1.08771
C          5.98819       -2.56111        0.76974
S          5.98683       -2.75537       -0.97158
C          5.84415       -3.50689        1.71647
C          5.62679       -4.90967        1.50874
S          4.59929       -5.73774        2.63801
C          4.38623       -7.12129        1.62189
C          5.11498       -6.93208        0.45125
C          6.09780       -5.85490        0.60824
C          7.22618       -5.72560       -0.23816
S          8.67188       -4.77616        0.13554
C          7.19663       -6.58994       -1.35348
C          6.16313       -7.53788       -1.59013
C          5.11460       -7.77210       -0.68503
O          4.18033       -8.71665       -1.01842
C          3.68915       -8.30826        2.12822
S          4.52813       -9.81819        1.96801
C          3.28432      -10.69264        2.70370
C          2.25721       -9.89383        3.15615
N          1.17013      -10.44240        3.78886
O         -0.05212       -9.80006        3.77079
O          1.07336      -11.82231        3.90074
C          2.50269       -8.48555        2.85868
N          1.62710       -7.48946        3.23540
O          1.62066       -6.29779        2.50591
O          1.34516       -7.35179        4.61496
C          0.09238       -6.78932        4.76443
C         -0.35875       -6.24507        5.90710
C         -1.63106       -5.58641        5.91809
S         -3.01849       -6.42033        5.28672
C         -3.96662       -4.98516        5.13797
C         -3.20302       -3.90821        5.56019
C         -2.02189       -4.31405        6.31882
C         -1.28670       -3.39030        7.10337
S          0.02871       -3.80417        8.19824
C         -1.80288       -2.07155        7.06562
C         -2.86953       -1.66137        6.22072
C         -3.57138       -2.56086        5.40699
O         -4.46473       -2.12224        4.47364
C         -5.28327       -5.13776        4.59210
C         -6.40520       -4.51849        4.99959
C         -7.64576       -4.57524        4.24584
C         -8.37721       -3.45748        4.39113
C         -7.71888       -2.48892        5.25798
S         -6.60925       -3.37226        6.31253
C         -7.67335       -1.15791        5.04420
C         -8.29183       -0.47653        3.91706
C         -7.66568        0.65924        3.57492
C         -6.56177        0.97539        4.44551
S         -6.55698       -0.05074        5.85535
C         -5.60953        1.87796        4.19507
H         11.09948       -0.58413       -5.17570
H         10.29610       -2.23654       -5.39150
H          9.98246        1.14633       -3.52824
H          8.24766        1.19531       -1.68797
H          6.94293        0.60119        0.12711
H          6.09248       -0.76570        2.08585
H          5.84252       -3.17707        2.75504
H          8.33932       -4.43782        1.38781
H          8.00828       -6.53413       -2.08005
H          6.20800       -8.13363       -2.50102
H          3.44873       -8.65898       -0.38174
H          3.35857      -11.76892        2.77806
H          0.01901       -9.23426        4.55992
H          0.12040      -11.95303        3.74875
H          2.13778       -5.71002        3.08594
H         -0.49286       -6.81609        3.85066
H          0.28871       -6.20670        6.77479
H         -0.71397       -4.55609        9.02568
H         -1.34459       -1.30812        7.69638
H         -3.14112       -0.60714        6.21416
H         -4.85721       -1.29668        4.80956
H         -5.35824       -5.80086        3.73223
H         -7.89717       -5.38790        3.57963
H         -9.29531       -3.25736        3.85914
H         -9.10843       -0.89557        3.34763
H         -7.92110        1.25797        2.71130
H         -5.61084        2.46269        3.28079
H         -4.77977        2.03700        4.87668
