110

C         -4.70410       -5.95538       10.72221
C         -4.04486       -7.19003       10.77396
C         -3.44429       -7.73669        9.63288
C         -3.45386       -7.04163        8.42463
C         -4.05308       -5.78967        8.38616
C         -4.71845       -5.25141        9.52501
C         -5.41558       -3.97867        9.11286
C         -5.85408       -2.97884        9.90890
C         -5.72118       -3.01430       11.32537
N         -5.60842       -3.03956       12.48005
C         -6.40597       -1.78166        9.36979
N         -6.87327       -0.81842        8.92251
C         -5.37246       -3.98805        7.62217
C         -4.18409       -4.80231        7.28417
C         -3.24915       -4.52132        6.34805
C         -3.26926       -3.28791        5.63236
N         -3.23487       -2.25793        5.09977
C         -2.15310       -5.38691        6.09042
N         -1.29494       -6.13342        5.85995
C         -6.40898       -3.68493        6.80264
C         -6.52935       -4.10777        5.43627
C         -7.12736       -3.52284        4.34842
C         -6.94507       -4.19521        3.14271
O         -7.50535       -3.58715        2.07540
C         -8.21117       -2.46201        2.68323
N         -7.84427       -2.40702        4.11666
C         -6.20962       -5.34783        3.22123
S         -6.04766       -5.70734        4.91501
C         -5.69070       -6.21052        2.19891
C         -4.50713       -6.83494        2.44085
C         -3.83003       -7.56398        1.39317
C         -2.63035       -8.20585        1.38563
C         -1.65943       -8.57027        2.51242
C         -0.62568       -7.42436        2.70052
N          0.37266       -7.65440        3.75237
C         -2.32600       -8.94542        3.87386
N         -3.08389      -10.19768        3.86372
C         -2.33854       -8.35464       -0.05169
C         -1.20105       -8.65404       -0.69730
C         -1.07117       -8.46641       -2.20898
C         -2.38130       -8.16494       -2.92965
C         -3.53374       -7.93647       -2.28160
C         -3.48705       -7.92089       -0.84677
C         -4.38731       -7.46863        0.02937
C         -5.69407       -6.90348       -0.18533
C         -6.31079       -6.32420        0.86111
C         -0.35981       -9.64211       -2.80207
C         -0.95887      -10.73903       -3.28680
C         -0.22301      -11.84423       -3.77045
C         -0.57496      -12.74863       -4.72714
C          0.35062      -13.75159       -4.94511
O         -0.00151      -14.60650       -5.93152
C         -1.24001      -14.02047       -6.44870
N         -1.61518      -12.90836       -5.56464
C          1.46393      -13.70623       -4.14189
S          1.30538      -12.33250       -3.09518
C          2.58702      -14.56548       -3.99003
C          3.15811      -15.24463       -5.00248
C          3.83767      -16.54993       -4.81047
C          4.82116      -16.83458       -3.92897
C          5.33301      -15.85099       -3.02590
N          5.73957      -15.06117       -2.29357
C          5.46077      -18.10422       -3.88658
N          5.98096      -19.13997       -3.85634
C          3.24973      -17.43337       -5.87097
C          2.56636      -16.61578       -6.81780
C          1.78841      -17.17717       -7.82078
C          1.73160      -18.56647       -7.92094
C          2.42339      -19.37699       -7.01302
C          3.17433      -18.81798       -5.97380
C          2.76516      -15.19415       -6.42955
C          2.75207      -14.10146       -7.22735
C          2.34535      -14.16364       -8.58698
N          1.97830      -14.20982       -9.68707
C          3.19703      -12.82494       -6.77066
N          3.58678      -11.78234       -6.44286
H         -5.19827       -5.60283       11.62081
H         -4.01596       -7.74703       11.70923
H         -2.96906       -8.71479        9.68851
H         -3.00965       -7.50484        7.54941
H         -7.27905       -3.15702        7.18313
H         -9.28703       -2.63380        2.56088
H         -7.91988       -1.54321        2.16532
H         -8.58021       -2.11218        4.74880
H         -3.95861       -6.66421        3.35392
H         -1.10444       -9.46664        2.19817
H         -1.14306       -6.48185        2.91187
H         -0.07159       -7.28051        1.76648
H         -0.09279       -7.64648        4.66629
H          0.98730       -6.84143        3.80646
H         -2.97785       -8.14855        4.23124
H         -1.57065       -9.06352        4.65597
H         -3.70272      -10.23274        3.05704
H         -3.66952      -10.24261        4.69631
H         -0.31017       -8.94784       -0.15127
H         -0.43034       -7.58859       -2.37047
H         -2.36169       -8.11847       -4.01561
H         -4.45356       -7.71696       -2.80964
H         -6.15586       -6.94717       -1.16396
H         -7.29238       -5.88047        0.72470
H          0.72527       -9.56152       -2.78970
H         -2.04330      -10.81619       -3.31292
H         -2.01047      -14.79627       -6.46243
H         -1.04795      -13.66129       -7.46628
H         -2.09337      -12.11671       -5.97989
H          2.85938      -14.77522       -2.95750
H          1.19635      -16.57877       -8.50446
H          1.12560      -19.02460       -8.70040
H          2.35294      -20.46010       -7.10242
H          3.63910      -19.48653       -5.25695
