121

C          2.13692       -0.43429       -0.69615
C          1.77069       -0.81752       -2.07388
C          2.36759       -1.92292       -2.68891
C          1.85333       -2.44861       -3.87464
C          0.74651       -1.86555       -4.47576
C          0.16313       -0.74533       -3.90247
C          0.66998       -0.22614       -2.71069
F          0.04153        0.80935       -2.13420
F         -0.92765       -0.20125       -4.46064
F          0.21929       -2.40776       -5.58277
F          2.39539       -3.55496       -4.40308
F          3.40687       -2.53439       -2.09943
C          3.10175        0.39276       -0.22864
C          3.06007        0.60238        1.24476
C          3.70507       -0.28677        2.11336
C          3.51502       -0.21117        3.49422
C          2.68936        0.76447        4.03392
C          2.06765        1.67718        3.19665
C          2.24889        1.59638        1.81652
F          1.58694        2.46106        1.03423
F          1.26159        2.61639        3.71129
F          2.47531        0.81183        5.35632
F          4.10174       -1.10676        4.30039
F          4.48524       -1.25565        1.61188
C          3.91117        1.14044       -1.14404
S          3.32643        2.66937       -1.63979
C          4.64466        2.98262       -2.69140
C          5.41191        1.83176       -2.81319
C          5.15360        0.90389       -1.72058
C          6.15323       -0.18292       -1.36453
N          7.02758        0.26908       -0.18203
O          7.35994       -0.60065        0.63198
O          7.40388        1.45090       -0.15806
C          7.15123       -0.52524       -2.49978
C          6.76357        0.01702       -3.87747
C          6.48842        1.53419       -3.84100
N          6.09411        1.89909       -5.27096
O          4.91551        1.73019       -5.61151
O          7.01265        2.27277       -6.01372
C          4.81047        4.24884       -3.33467
C          3.95266        5.26775       -3.17320
C          4.11770        6.55284       -3.77171
N          4.22504        7.72292       -3.02199
C          4.35630        7.82092       -1.58289
C          5.81178        7.75403       -1.14227
C          4.36768        8.85055       -3.84591
O          4.51546       10.01515       -3.53706
C          4.34284        8.26454       -5.19805
C          4.16593        6.84751       -5.07247
C          4.12478        6.27440       -6.42895
O          3.98752        5.10735       -6.72891
N          4.30407        7.40771       -7.25123
C          4.40050        7.29549       -8.69432
C          5.82590        7.04607       -9.16261
C          4.46033        8.56657       -6.49047
C          4.67219        9.86831       -7.04103
C          5.39568       10.81547       -6.42394
C          5.57557       12.14410       -6.92669
C          4.67241       12.81224       -7.67458
C          5.22336       14.12305       -8.00216
C          6.50055       14.20181       -7.27866
C          6.68591       13.03247       -6.64624
C          7.44062       15.24906       -7.24820
N          8.23122       16.10229       -7.23314
C          4.66378       15.00840       -8.85262
C          5.22991       16.30820       -9.20783
C          4.49031       16.85152      -10.19315
C          3.36542       15.95195      -10.45079
C          3.43964       14.87561       -9.65263
C          2.47089       13.84057       -9.64118
N          1.66919       13.00660       -9.63319
C          4.72077       18.17584      -10.75368
C          3.65240       19.20326      -10.64432
C          2.69169       19.36258      -11.65019
C          1.68168       20.31614      -11.53326
C          1.60705       21.11810      -10.40365
C          2.53817       20.96465       -9.38722
C          3.55124       20.01422       -9.50477
F          4.43581       19.88011       -8.50530
F          2.46266       21.73141       -8.29051
F          0.63628       22.03581      -10.29380
F          0.77895       20.45658      -12.51368
F          2.72750       18.58106      -12.73979
C          5.87061       18.56504      -11.35120
C          7.08917       17.76023      -11.57646
C          7.27248       17.00644      -12.74254
C          8.43299       16.25409      -12.93729
C          9.43993       16.26380      -11.98348
C          9.29667       17.03684      -10.84138
C          8.13178       17.77638      -10.64061
F          8.01822       18.53078       -9.53727
F         10.28888       17.08603       -9.94189
F         10.55457       15.54262      -12.17385
F          8.58225       15.52912      -14.05545
F          6.34223       17.02719      -13.70871
H          1.45227       -0.90062        0.01563
H          5.63475       -1.08602       -1.02418
H          7.24861       -1.61665       -2.56463
H          8.16316       -0.15984       -2.27499
H          5.87415       -0.52500       -4.22926
H          7.56345       -0.20912       -4.59453
H          7.39927        2.10027       -3.61043
H          5.69796        4.40334       -3.94551
H          3.06437        5.18840       -2.55349
H          3.76590        7.03793       -1.09811
H          3.94091        8.78555       -1.26817
H          6.27588        6.80998       -1.44520
H          5.88395        7.83887       -0.05374
H          6.39621        8.56801       -1.58539
H          3.99226        8.19327       -9.16885
H          3.77489        6.45431       -9.01474
H          6.49061        7.86531       -8.87064
H          5.85605        6.95488      -10.25332
H          6.22482        6.12099       -8.73358
H          4.20017       10.07680       -7.99612
H          5.89977       10.61586       -5.48004
H          3.71559       12.41357       -7.96497
H          7.53541       12.75651       -6.03512
H          6.06405       16.79905       -8.73438
H          2.58740       16.15841      -11.17245
H          5.97377       19.58619      -11.71774
