99

C          5.43121        8.12352        4.39639
C          5.02485        7.80608        3.15407
C          3.66736        8.33944        2.96968
C          3.33449        9.00593        4.24013
C          4.39187        8.87483        5.06018
C          2.19884        9.78491        4.55765
N          1.28217       10.44852        4.81375
C          2.92047        8.22335        1.85039
C          1.51564        8.62206        1.68885
C          1.06443        8.30673        0.44788
C          2.25298        7.81408       -0.25456
C          3.31153        7.68576        0.55868
C          4.56556        7.19965        0.12349
N          5.57579        6.77483       -0.25816
C         -0.33076        8.37719       -0.03758
C         -1.46126        8.69285        0.66180
N         -1.56451        9.04152        2.04849
O         -2.08804       10.13701        2.30078
O         -1.22333        8.19622        2.88081
C         -2.67260        8.62285       -0.11303
C         -2.34172        8.35160       -1.37495
C         -0.88789        8.28653       -1.45956
C         -0.29634        8.10509       -2.65741
C          0.70798        7.07906       -2.89727
C          1.08397        7.15840       -4.17911
C          0.30675        8.20202       -4.81347
N          0.57894        8.62052       -6.17130
O         -0.36752        8.96308       -6.88560
O          1.76238        8.57496       -6.53719
C         -0.61137        8.76056       -3.98334
C         -1.35490        9.99603       -4.27669
C         -2.59252       10.33378       -3.87506
C         -3.31378       11.52028       -4.24565
N         -3.84254       12.48590       -3.37101
C         -3.64171       12.68625       -1.95556
C         -3.68622       11.45053       -1.10074
C         -4.53693       13.49319       -4.08018
O         -5.08090       14.50220       -3.68202
C         -4.42860       13.03797       -5.46185
C         -3.69200       11.81693       -5.49129
C         -3.66445       11.34481       -6.88434
O         -3.25059       10.27257       -7.26903
N         -4.27235       12.40999       -7.58884
C         -4.52702       12.38601       -9.02018
C         -3.44633       11.68685       -9.83331
C         -4.76584       13.36760       -6.70117
C         -5.51264       14.52992       -7.04666
C         -4.98627       15.56054       -7.71845
C         -5.79351       16.68160       -8.02028
S         -5.14790       17.95275       -8.97919
C         -6.72222       18.65529       -8.99131
N         -7.59140       18.00383       -8.24657
N         -7.05529       16.87167       -7.68494
C         -6.94195       19.80521       -9.78216
C         -8.16334       20.34836       -9.89791
C         -8.42077       21.50680      -10.71509
C         -7.52109       22.48603      -10.94892
C         -8.13306       23.49964      -11.80336
C         -9.51746       23.05040      -12.00406
C         -9.67060       21.88431      -11.35059
C        -10.55123       23.67186      -12.74032
N        -11.40302       24.17096      -13.34479
C         -7.50287       24.59522      -12.27714
C         -8.10276       25.62597      -13.12618
C         -7.16749       26.55976      -13.37378
C         -5.93448       26.18007      -12.72163
C         -6.10389       25.01937      -12.07518
C         -5.06857       24.36401      -11.36751
N         -4.21539       23.82620      -10.79499
H          6.38173        7.86782        4.84084
H          5.61391        7.22609        2.46342
H          4.49467        9.29608        6.04984
H          0.93948        9.02214        2.50071
H          2.33143        7.60588       -1.30107
H         -3.67011        8.72809        0.28666
H         -3.03872        8.10501       -2.15762
H          1.00350        6.30344       -2.20725
H          1.78720        6.51662       -4.68901
H         -0.83449       10.69891       -4.93171
H         -3.21112        9.65585       -3.31463
H         -4.41890       13.36806       -1.58927
H         -2.68579       13.20479       -1.82453
H         -4.49582       10.77359       -1.39203
H         -3.81219       11.70687       -0.04438
H         -2.72610       10.94853       -1.19520
H         -4.59526       13.41584       -9.38349
H         -5.49627       11.90390       -9.18472
H         -2.44449       11.99573       -9.51660
H         -3.55930       11.91896      -10.89635
H         -3.51925       10.59983       -9.72896
H         -6.52960       14.57854       -6.65477
H         -3.95619       15.53369       -8.06157
H         -6.09400       20.21908      -10.31992
H         -9.01957       19.90743       -9.38858
H         -6.52301       22.49705      -10.54865
H        -10.57097       21.28807      -11.29924
H         -9.10993       25.67103      -13.50258
H         -7.29730       27.44608      -13.96937
H         -5.02361       26.75916      -12.78458
