107

C          1.42400        1.95317       -9.87450
C          0.67078        0.90968       -9.46166
C          1.06407       -0.44544       -9.66841
N          1.40535       -1.54449       -9.82385
C         -0.59630        1.08571       -8.82316
N         -1.60286        1.24378       -8.27249
C          2.70813        1.88346      -10.63312
C          2.89773        3.10891      -11.28632
C          4.01721        3.43551      -12.02723
C          5.06046        2.51702      -12.05429
C          4.93180        1.27205      -11.37264
C          3.73843        0.95415      -10.68076
C          6.03164        0.40153      -11.36906
C          7.22602        0.75400      -12.00378
C          7.33870        1.97390      -12.66555
C          6.25734        2.84983      -12.69833
C          1.88339        4.07985      -10.87739
O          1.82861        5.23007      -11.26112
C          1.07987        3.39012       -9.80933
C          0.41285        4.07088       -8.86105
C          0.32321        5.51516       -8.75541
C         -0.35143        6.36945       -9.57177
N         -1.17504        6.00418      -10.71195
O         -1.98693        6.86077      -11.09535
O         -1.06222        4.88203      -11.22238
C         -0.23342        7.73858       -9.12698
C          0.49637        7.76243       -8.00609
C          0.88551        6.39612       -7.66192
C          1.62069        6.07635       -6.56748
C          2.18445        4.75492       -6.27744
C          2.89876        4.84051       -5.14113
C          2.80340        6.19257       -4.64079
N          3.38891        6.61459       -3.38786
O          3.81309        7.77280       -3.29369
O          3.46467        5.75614       -2.49746
C          2.04676        6.97865       -5.43696
C          1.61040        8.32755       -5.12085
C          0.76612        8.62319       -4.11715
C          0.34778        9.95666       -3.84449
S          0.05659       10.45167       -2.20623
C         -0.43443       12.04284       -2.64564
C         -0.36556       12.20613       -4.00395
C          0.05376       11.02943       -4.62792
C         -0.00456       11.22130       -6.03175
C         -0.41423       12.50204       -6.41715
C         -0.60566       12.97146       -7.82653
S         -0.74581       13.60838       -5.09206
C         -0.88670       12.99942       -1.69030
C         -2.22379       13.09297       -1.52109
C         -2.81971       13.98295       -0.54645
C         -2.12564       14.99553        0.00611
C         -0.66080       15.19331       -0.33918
C          0.00233       13.83892       -0.77489
N          1.35755       14.02574       -1.33889
C          1.53064       15.14118       -1.95992
C          0.46496       16.18463       -2.11497
N         -0.59289       16.24654       -1.37925
F          0.62871       17.11348       -3.06518
F          2.73856       15.39045       -2.48093
C         -2.74353       15.96428        0.90265
C         -3.30199       15.72598        2.10237
C         -4.09220       16.61521        2.98794
C         -4.01301       17.96972        3.08121
C         -4.77601       18.72387        4.01772
N         -5.40172       19.34361        4.77516
C         -3.11190       18.74580        2.29277
N         -2.37996       19.38333        1.66603
C         -4.89019       15.71514        3.88133
C         -4.41896       14.40615        3.71741
C         -3.35847       14.35344        2.70719
O         -2.67444       13.38095        2.46597
C         -4.92908       13.30797        4.39148
C         -5.98170       13.51343        5.28408
C         -6.49506       14.82585        5.47855
C         -5.94693       15.91773        4.76310
C         -7.55020       15.00519        6.38799
C         -8.09040       13.92037        7.08426
C         -7.59032       12.63803        6.87895
C         -6.54171       12.43509        5.98329
H          4.09595        4.41580      -12.48995
H          3.68493        0.01519      -10.13561
H          5.97816       -0.55494      -10.85251
H          8.07578        0.07652      -11.97526
H          8.27171        2.25068      -13.14993
H          6.36613        3.80478      -13.20803
H         -0.03459        3.55563       -8.01568
H         -0.63860        8.59323       -9.64762
H          0.79313        8.65690       -7.50290
H          2.09970        3.86074       -6.86799
H          3.45414        4.05192       -4.65797
H          2.04373        9.11430       -5.73409
H          0.40394        7.83965       -3.45438
H          0.20705       10.46498       -6.76717
H         -0.26978       12.20573       -8.53698
H         -0.03210       13.88090       -8.02686
H         -1.66465       13.16168       -8.02738
H         -2.91651       12.47739       -2.09133
H         -3.86756       13.81509       -0.31312
H         -0.12410       15.56085        0.54665
H          0.14100       13.24525        0.14068
H         -2.75322       16.95734        0.46008
H         -4.51731       12.31913        4.20741
H         -6.38673       16.89763        4.91714
H         -7.96236       15.99613        6.56894
H         -8.90401       14.07749        7.78852
H         -8.01439       11.79393        7.41704
H         -6.16519       11.42464        5.83537
