64

C         -5.43833      -10.73770       -0.37654
S         -5.25044       -9.01845       -0.21461
C         -3.51378       -9.11703        0.02494
C         -3.18392      -10.44511        0.00868
C         -4.22203      -11.31757       -0.21157
O         -3.78202      -12.58452       -0.21842
C         -2.41816      -12.45279        0.01646
S         -1.37860      -13.72011        0.11542
O         -2.03350      -11.12490        0.15616
C         -2.75108       -7.92617        0.18060
C         -1.42542       -7.92010       -0.03607
C         -0.55893       -6.75983        0.07623
C          0.78965       -6.81020        0.26391
O          1.56740       -5.65635        0.39676
C          0.91042       -4.48498        0.27173
C         -0.47978       -4.42484        0.04982
C         -0.94991       -3.14238       -0.06043
S          0.33170       -2.00563        0.12465
C          1.49763       -3.25090        0.34291
O         -1.24107       -5.53589       -0.04360
C          1.59163       -8.00575        0.43349
C          1.76266       -8.96710       -0.48826
C          2.57041      -10.10976       -0.22920
S          2.25385      -11.60710       -1.05978
C          3.50165      -12.49909       -0.21475
C          4.13405      -11.61326        0.61754
C          3.64118      -10.32366        0.59497
O          4.30962       -9.49307        1.41161
C          5.34167      -10.37813        1.94597
O          5.15627      -11.75115        1.47775
C          3.73042      -13.91607       -0.44930
S          2.39876      -14.94682       -0.79751
C          3.35526      -16.36226       -0.94622
C          4.68601      -16.06357       -0.68525
C          4.90429      -14.65737       -0.42974
S          6.52360      -13.97054       -0.17071
C          7.40733      -15.36674        0.34126
O          7.96960      -15.56076        1.39868
C          7.39500      -16.27593       -0.86236
O          8.22427      -16.33080       -1.74616
S          5.99583      -17.26823       -0.64036
C          2.70860      -17.60840       -1.31244
S          3.47025      -18.82814       -2.30124
C          2.10216      -19.91093       -2.27350
C          1.11449      -19.28173       -1.57219
C          1.44035      -18.04967       -1.05001
O          0.39726      -17.55068       -0.36308
C         -0.58010      -18.52893       -0.48950
S         -2.08066      -18.42281        0.17088
O         -0.14276      -19.61521       -1.23516
C          2.19286      -21.17111       -2.92016
C          1.11547      -21.80278       -3.40088
H         -6.40245      -11.18631       -0.56865
H         -3.26704       -7.01457        0.47327
H         -0.93510       -8.84390       -0.32563
H         -1.96250       -2.81021       -0.23784
H          2.53951       -3.01223        0.51016
H          2.10287       -8.05673        1.39404
H          1.25774       -8.89970       -1.44897
H          6.32140      -10.01966        1.60801
H          5.29462      -10.36295        3.03936
H          3.17270      -21.62924       -3.03987
H          0.11363      -21.38980       -3.34022
H          1.22151      -22.76405       -3.89495
