71

C          3.55346        5.95725        2.74892
S          2.18383        4.95046        2.91065
C          2.26735        4.45381        1.26128
C          3.39341        4.97922        0.64568
C          4.11635        5.86865        1.49711
O          5.15280        6.68041        1.18319
C          6.21790        6.02596        0.50453
C          5.87531        5.66030       -0.93172
C          4.97600        4.43374       -0.97277
O          3.61795        4.74209       -0.67113
C          1.24093        3.61762        0.73447
C          0.11737        4.10306        0.14609
O         -0.87671        3.24865       -0.35646
C         -0.66010        1.92937       -0.18353
C          0.48906        1.43404        0.46333
C          0.48779        0.06854        0.57504
S         -0.91469       -0.60640       -0.16513
C         -1.51208        0.94581       -0.61095
O          1.46499        2.24907        0.92629
C         -0.19365        5.50999       -0.05293
C         -1.44696        5.99025       -0.14413
C         -1.75991        7.37533       -0.31754
C         -2.50937        8.13388        0.48953
C         -2.56597        9.48424        0.01715
C         -1.88107        9.63345       -1.11975
C         -1.34442        8.27492       -1.44479
S         -0.51282        7.84252       -2.83909
C         -1.67787       10.83098       -1.88957
C         -2.63629       11.57642       -2.45871
C         -2.39110       12.75490       -3.25460
C         -3.48664       13.22293       -3.87072
C         -4.67838       12.42785       -3.62505
S         -4.33886       11.20655       -2.40144
C         -5.85334       12.51676       -4.27652
C         -6.18004       13.43737       -5.34946
C         -7.32616       13.14204       -5.98307
C         -7.98698       11.96795       -5.46136
S         -7.19866       11.41226       -4.00659
C         -9.03860       11.36946       -6.04328
C         -9.60237       10.17239       -5.54991
S         -9.02250        8.57962       -5.92066
C        -10.22508        7.79321       -4.93366
C        -11.01142        8.75421       -4.40438
C        -10.66765       10.04640       -4.73433
O        -11.43286       11.04753       -4.21254
C        -12.33276       10.27710       -3.50402
N        -13.35628       11.01494       -2.84039
O        -14.51196       10.59377       -2.98189
O        -13.00625       11.98524       -2.15910
C        -12.14135        8.89314       -3.58276
H          3.87800        6.57485        3.57433
H          6.57297        5.16122        1.08110
H          7.04711        6.74275        0.48658
H          6.80325        5.43736       -1.46884
H          5.37819        6.50419       -1.42394
H          5.34744        3.62344       -0.33129
H          4.97705        4.04070       -1.99598
H          1.22430       -0.56906        1.04242
H         -2.44578        1.05226       -1.14776
H          0.64915        6.19533       -0.10429
H         -2.30120        5.32670       -0.03803
H         -2.97962        7.80464        1.40449
H         -3.09099       10.27099        0.54279
H         -0.63443       11.09565       -2.04608
H         -1.40869       13.19523       -3.35624
H         -3.47316       14.08425       -4.52247
H         -5.54436       14.26066       -5.63467
H         -7.70480       13.69994       -6.82983
H         -9.46402       11.77885       -6.95420
H        -10.25507        6.71687       -4.83671
H        -12.74497        8.13172       -3.10933
