96

C          9.96841        2.65985      -10.17227
O         10.88550        2.24428      -11.08561
C         11.40549        3.36170      -11.65654
C         10.83747        4.49126      -11.11582
C          9.89830        4.03362      -10.16621
C          9.03932        4.83361       -9.35720
C          7.85732        4.42714       -8.87696
C          6.99328        5.28744       -8.11654
C          6.12109        4.81310       -7.21286
C          5.23176        5.64522       -6.41734
C          4.37892        5.20332       -5.45624
O          3.56058        6.09488       -4.73458
C          3.71016        7.40259       -5.02043
C          4.60662        7.85912       -5.99742
C          4.61984        9.22344       -6.13032
S          3.51256        9.94684       -5.02679
C          3.03237        8.41799       -4.39594
O          5.36940        7.01255       -6.71583
C          4.14840        3.81258       -5.07632
C          3.75326        3.42906       -3.84712
C          3.44008        1.99968       -3.44198
C          3.02363        1.79072       -1.98247
C          2.95155        0.22683       -1.73887
C          3.64911       -0.74937       -2.71835
C          4.44499       -1.70522       -2.21935
O          3.47304       -0.77813       -4.10894
C          2.77624        0.16941       -4.98215
C          2.23986        1.33713       -4.16753
C          1.11171        2.32296       -4.19986
C          0.80063        2.84201       -2.98666
C          1.61466        2.49827       -1.71110
C          1.79944        3.76380       -0.86548
C          1.69054       -0.61782       -5.72118
C          2.24646       -1.76066       -6.59455
C          1.14881       -2.55846       -7.31945
C          0.36928       -1.69172       -8.27686
S          0.94040       -1.53329       -9.89778
C         -0.23347       -0.37120      -10.24915
N         -0.27123        0.22067      -11.54520
O         -1.37037        0.20414      -12.12413
O          0.76616        0.74154      -11.96298
C         -1.08475       -0.11273       -9.20346
C         -0.75667       -0.90533       -8.05691
C         -1.46948       -0.86776       -6.80922
C         -2.09234        0.21765       -6.31788
C         -2.78650        0.19860       -5.07438
C         -3.44755       -0.82928       -4.42668
C         -4.06963       -0.43501       -3.19447
C         -3.84446        0.91046       -2.92756
S         -2.91697        1.65049       -4.16683
C         -4.35619        1.51013       -1.77389
C         -5.12300        0.77861       -0.85286
C         -5.35587       -0.56818       -1.12377
C         -4.83735       -1.16853       -2.27485
S         -6.31547       -1.30200        0.10336
C         -6.42580        0.15154        0.98842
C         -5.74802        1.17897        0.37498
H          9.46387        1.87564       -9.62948
H         12.15149        3.18956      -12.41890
H         11.05621        5.51169      -11.39958
H          9.37996        5.84258       -9.12902
H          7.48474        3.42568       -9.08413
H          7.07313        6.35598       -8.31781
H          6.09910        3.74229       -7.02776
H          5.21208        9.82956       -6.80104
H          2.29608        8.34579       -3.61078
H          4.28449        3.05724       -5.84494
H          3.63857        4.18840       -3.07957
H          4.38654        1.46908       -3.61135
H          3.78914        2.20128       -1.31137
H          1.90847       -0.10451       -1.64094
H          3.36374        0.06969       -0.73120
H          4.62805       -1.80614       -1.15558
H          4.91691       -2.43028       -2.87513
H          3.50858        0.53257       -5.71338
H          1.67085        0.66680       -3.50688
H          0.58200        2.59598       -5.10272
H         -0.02734        3.54089       -2.88921
H          0.99201        1.82388       -1.10864
H          2.36904        4.53669       -1.38726
H          2.32121        3.53018        0.06868
H          0.82852        4.19745       -0.60049
H          1.00174       -1.05581       -4.98878
H          1.13126        0.08601       -6.34199
H          2.82667       -2.45515       -5.97415
H          2.94038       -1.35273       -7.34031
H          0.47848       -3.02966       -6.59181
H          1.62135       -3.38478       -7.86861
H         -1.89451        0.60435       -9.25906
H         -1.46307       -1.78189       -6.21868
H         -2.05933        1.16008       -6.85928
H         -3.51667       -1.83385       -4.82651
H         -4.16438        2.56444       -1.58634
H         -5.03444       -2.22132       -2.46582
H         -6.98172        0.18578        1.91532
H         -5.70103        2.18150        0.78229
