158

C         -1.20868       -5.52204        1.88107
C         -0.55726       -4.75039        2.80558
C          0.72322       -4.22339        2.35016
C          1.72501       -3.46343        3.01758
C          1.56389       -3.14691        4.46547
C          1.79942       -1.96305        5.15119
C          1.45441       -2.02166        6.53255
C          0.89284       -3.22925        6.87677
S          1.07057       -4.35651        5.60310
C          0.21689       -3.61311        8.15117
Cl         1.65843       -0.68334        7.57966
C          2.84231       -2.96497        2.29615
C          3.01074       -3.24013        0.92979
C          2.05910       -4.09075        0.30366
C          0.92295       -4.55103        1.00264
S         -0.39857       -5.51617        0.39795
C          2.26870       -4.44471       -1.11771
C          2.52693       -3.61799       -2.19842
C          2.72810       -4.32909       -3.41632
C          2.51962       -5.68216       -3.27208
S          2.30526       -6.09337       -1.62416
C          2.50864       -6.75047       -4.31468
Cl         3.15517       -3.53191       -4.86967
C          4.18592       -2.56045        0.40500
C          4.89187       -1.81962        1.32783
S          4.17910       -2.00671        2.86432
C          6.08359       -1.01403        1.09222
C          6.43368       -0.32100       -0.05509
C          7.72570        0.34346        0.01680
C          8.32385        0.11919        1.25288
S          7.30501       -0.82658        2.27619
C          9.60000        0.62772        1.55448
O         10.16926        0.27916        2.77595
C         10.52796        1.40063        3.58397
C         10.32753        1.36577        0.59541
C          9.70577        1.65521       -0.62638
C          8.42671        1.13293       -0.93520
O          7.73324        1.42605       -2.10951
C          8.46864        1.27109       -3.32341
S         10.71994        2.71138       -1.55194
C         12.02568        2.64475       -0.45659
C         11.67959        1.87345        0.62745
C         13.27167        3.34685       -0.69359
C         13.46078        4.44111       -1.50928
C         14.81135        4.94688       -1.57431
C         15.63147        4.19815       -0.72163
S         14.74290        2.92323        0.05237
C         17.00122        4.49605       -0.54433
O         17.67602        3.80177        0.45494
C         18.89766        3.18973        0.05124
C         17.59684        5.56935       -1.24524
C         16.78503        6.29909       -2.10791
C         15.40975        6.02206       -2.28415
O         14.77165        6.88767       -3.16545
C         13.39444        6.75851       -3.44835
S         17.67602        7.56437       -2.88232
C         19.12952        7.19441       -2.07157
C         18.93247        6.12367       -1.22444
C         20.35404        7.94862       -2.26035
C         21.43833        8.01316       -1.41050
C         22.49447        8.91058       -1.83833
C         23.69757        9.32969       -1.20644
C         23.99341        8.83793        0.16045
C         23.15910        8.73589        1.26328
C         23.81334        8.22697        2.42282
C         25.15777        8.01899        2.21402
S         25.54505        8.18906        0.55648
C         26.21962        7.65190        3.19737
Cl        22.98016        7.97497        3.89629
C         24.57596       10.22968       -1.85627
C         24.35877       10.60714       -3.18978
C         23.16357       10.18636       -3.81961
C         22.22250        9.39464       -3.12229
S         20.64056        8.91283       -3.62985
C         22.89144       10.54477       -5.23499
C         22.42250        9.73210       -6.26181
C         22.26170       10.41854       -7.49755
C         22.69478       11.72210       -7.42813
S         23.05898       12.15875       -5.81136
C         22.83095       12.72350       -8.52571
Cl        21.63811        9.64161       -8.88913
C         25.49554       11.36183       -3.67388
C         26.42986       11.68526       -2.72444
S         25.97484       11.04752       -1.21935
C         27.63220       12.46946       -2.91428
C         28.32433       13.25226       -2.01973
C         29.43717       13.98771       -2.60200
C         30.39914       14.85074       -2.02343
C         30.42356       14.99329       -0.55171
C         30.33882       14.01259        0.42608
C         30.39151       14.53392        1.75149
C         30.57891       15.89741        1.76870
S         30.47249       16.54787        0.19258
C         30.82297       16.79092        2.93859
Cl        30.27132       13.52885        3.13129
C         31.33514       15.53233       -2.83732
C         31.25632       15.47101       -4.23769
C         30.32755       14.56687       -4.81612
C         29.47742       13.79454       -3.98809
S         28.42110       12.49113       -4.41926
C         30.31540       14.40049       -6.29510
C         31.37094       14.39602       -7.19743
C         30.97700       14.10435       -8.53666
C         29.63615       13.81487       -8.62457
S         28.83603       14.24842       -7.17772
C         28.85764       13.21948       -9.74890
Cl        32.10824       14.03659       -9.81840
C         32.17164       16.41966       -4.83354
C         33.01783       17.02044       -3.93496
S         32.71596       16.48196       -2.36020
H         -2.13897       -6.06221        2.00697
H         -0.97597       -4.59519        3.78976
H          2.17984       -1.06489        4.68402
H          0.80630       -3.30618        9.02107
H          0.03646       -4.68909        8.22809
H         -0.75791       -3.11034        8.21322
H          2.59407       -2.54020       -2.11878
H          2.21695       -6.34515       -5.28992
H          1.78941       -7.54122       -4.07340
H          3.50036       -7.20131       -4.41565
H          4.49953       -2.62240       -0.62944
H          5.80857       -0.27994       -0.93964
H         10.48349        1.08844        4.63177
H          9.86199        2.25990        3.45062
H         11.56480        1.68971        3.39327
H          7.76069        1.01331       -4.11735
H          9.22132        0.47743       -3.27167
H          8.91879        2.22459       -3.61338
H         12.36251        1.69715        1.44692
H         12.62169        4.86714       -2.03539
H         19.03627        2.28746        0.65486
H         19.73932        3.84888        0.29226
H         18.91457        2.90775       -1.00303
H         13.12987        7.52280       -4.18648
H         12.78888        6.95664       -2.55759
H         13.17249        5.78962       -3.90402
H         19.73157        5.73791       -0.60731
H         21.46426        7.46830       -0.47563
H         22.11552        9.02455        1.24943
H         25.97333        8.02807        4.19694
H         27.18678        8.09005        2.92652
H         26.33472        6.56601        3.26009
H         22.18910        8.68441       -6.13329
H         23.01733       12.22779       -9.48524
H         23.67526       13.39766       -8.35010
H         21.91943       13.31984       -8.62180
H         25.59309       11.68592       -4.70379
H         28.03161       13.33921       -0.97790
H         30.24311       12.95662        0.20473
H         29.99970       16.72407        3.65637
H         30.93393       17.84071        2.64785
H         31.74694       16.49333        3.44804
H         32.40349       14.55260       -6.91228
H         27.91430       13.74476       -9.91632
H         28.62879       12.17105       -9.51822
H         29.42190       13.22771      -10.68602
H         32.23928       16.63029       -5.89222
H         33.80665       17.72778       -4.13556
