101

C         -8.97610       -1.41434       -0.45238
C         -8.76421       -2.62396        0.12239
C         -9.12187       -3.85840       -0.49342
N         -9.40007       -4.86865       -0.98540
C         -8.16362       -2.78946        1.41011
N         -7.66283       -2.94464        2.44008
C         -9.64812       -1.16922       -1.77518
C         -9.80684        0.20924       -1.94366
C        -10.33702        0.81154       -3.07889
C        -10.76285       -0.02695       -4.12729
C        -10.65323       -1.41528       -3.96228
C        -10.09617       -2.00545       -2.79541
S        -11.27267       -2.25070       -5.34405
C        -11.62548       -0.80506       -6.14130
C        -11.31252        0.30872       -5.41045
Br       -12.37175       -0.73214       -7.85774
C         -9.32626        0.94339       -0.77335
O         -9.49329        2.12890       -0.58705
C         -8.66233       -0.06866        0.11066
C         -7.89537        0.30057        1.14749
C         -7.58916        1.62692        1.61650
C         -7.01728        2.65194        0.97372
C         -6.67624        3.62188        1.97422
C         -7.13915        3.00656        3.19478
N         -7.67615        1.82524        3.00055
O         -6.94532        3.64256        4.35412
C         -7.24003        2.85763        5.51201
C         -5.95780        4.55692        1.35463
N         -5.82241        4.34756       -0.02489
C         -6.45015        3.21548       -0.23442
O         -6.54508        2.53039       -1.38147
C         -5.86483        3.11956       -2.49332
C         -5.09088        5.47044        1.99324
C         -5.30551        6.72258        2.52094
C         -4.07438        7.38268        2.91226
N         -4.03263        8.65956        3.38704
C         -5.27231        9.24040        3.40863
C         -5.29207       10.67483        3.79161
O         -4.27690       11.32331        4.01334
C         -6.60132       11.34823        3.88565
C         -7.73943       10.71383        3.60575
C         -7.75818        9.30379        3.17077
O         -8.83480        8.77476        2.92424
C         -6.46089        8.59121        3.05790
N         -6.53766        7.30302        2.59757
C         -2.94325        6.60876        2.71982
S         -3.42380        5.04912        2.14118
C         -1.55593        6.88498        2.88541
C         -0.95603        8.05616        2.63333
C          0.44820        7.82299        2.81768
C          0.52514        6.42282        3.14214
N         -0.64893        5.84467        3.18668
O          1.74808        5.89868        3.26921
C          1.84305        4.48528        3.09211
C          1.09068        8.95792        2.55383
N          0.22609        9.96535        2.12910
C         -0.97342        9.43863        2.20081
O         -2.10956       10.02873        1.82810
C         -1.93809       11.31701        1.23215
C          2.51268        9.19209        2.51928
C          3.12813       10.36440        2.29557
C          2.61674       11.72046        2.05555
C          1.72470       12.39571        2.81810
C          1.31953       13.72623        2.51863
N          0.98129       14.80430        2.25183
C          1.18853       11.85228        4.02618
N          0.77567       11.43296        5.02684
C          3.50000       12.31063        1.01898
C          4.68582       11.56722        0.99277
C          4.55365       10.35666        1.83288
O          5.39548        9.50809        2.01912
C          5.78061       11.90197        0.20723
C          5.66264       13.03526       -0.63222
C          4.44350       13.73311       -0.66361
C          3.34103       13.38117        0.15034
S          4.49747       15.03444       -1.79852
C          6.10587       14.70994       -2.18928
C          6.62226       13.63221       -1.52087
Br         7.08305       15.72621       -3.42225
H        -10.40414        1.89381       -3.14904
H        -10.03610       -3.08628       -2.75385
H        -11.46406        1.32401       -5.75775
H         -7.40510       -0.43601        1.77414
H         -7.09897        3.48696        6.39448
H         -6.54312        2.01548        5.57292
H         -8.27572        2.50247        5.50045
H         -5.83705        2.38042       -3.29861
H         -4.83212        3.37719       -2.23516
H         -6.40732        4.00162       -2.84709
H         -6.58548       12.38896        4.19236
H         -8.70303       11.20748        3.67827
H          1.65581        4.23926        2.04193
H          1.15594        3.94579        3.74872
H          2.86790        4.18786        3.33318
H         -1.36408       11.21263        0.30533
H         -1.43874       12.01439        1.91362
H         -2.92332       11.71847        0.98544
H          3.12577        8.29217        2.58422
H          6.68671       11.30357        0.23345
H          2.41691       13.94446        0.07153
H          7.63663       13.27352       -1.64702
