140

C         -4.76351       -2.31131        1.31488
C         -5.58089       -3.29445        1.72110
C         -5.42197       -4.67825        1.32589
N         -5.28159       -5.77388        0.98211
C         -6.63303       -3.08510        2.66332
N         -7.49402       -2.89177        3.42273
C         -3.56449       -2.47199        0.43577
C         -2.74040       -1.36072        0.62190
C         -1.56299       -1.13015       -0.07497
C         -1.17212       -2.08958       -1.03258
C         -1.98240       -3.21985       -1.22306
C         -3.18894       -3.42828       -0.50500
S         -1.31399       -4.26470       -2.42788
C         -0.00998       -3.22747       -2.69696
C         -0.03590       -2.10593       -1.91269
Br         1.33743       -3.57648       -3.95005
C         -3.33842       -0.43488        1.58591
O         -2.74805        0.48579        2.11863
C         -4.75794       -0.90081        1.77829
C         -5.77794       -0.08976        2.08968
C         -5.79042        1.37968        2.29159
C         -6.71500        1.96713        3.18116
C         -6.81446        3.35984        3.25100
C         -5.94300        4.16634        2.48395
C         -5.02489        3.60584        1.61743
C         -4.99017        2.21826        1.49139
C         -6.29244        5.55714        2.63644
C         -7.42151        5.65595        3.46029
C         -7.80795        4.26617        4.03307
C         -9.29590        4.01743        3.65437
C         -9.96796        2.72743        4.10047
C         -7.48814        4.20061        5.55220
C         -8.18651        5.23245        6.43821
C         -8.11228        6.86179        3.55791
C         -7.67181        7.97751        2.82933
C         -6.46325        7.88923        2.11169
C         -5.77054        6.67685        2.00868
C         -8.50769        9.19160        2.85720
C         -8.57038       10.11588        1.88105
C         -9.46330       11.27310        1.98115
C         -9.04384       12.54027        2.48260
N         -7.80869       13.11044        2.85121
C         -6.54811       12.40404        2.67103
C         -6.14226       11.54832        3.86179
C         -7.97315       14.40998        3.37196
C         -9.37066       14.60895        3.38085
C        -10.00107       13.53134        2.70360
C        -11.34558       13.33133        2.31349
C        -11.73485       12.13247        1.73020
C        -10.81016       11.10875        1.59375
C         -9.94496       15.75723        3.97267
C         -9.15126       16.73395        4.52777
C         -7.78152       16.60438        4.42628
C         -7.13238       15.46471        3.86339
C         -5.66154       15.60079        3.67416
C         -4.93875       16.31607        4.56465
C         -3.71280       17.04459        4.30961
C         -2.46667       16.75263        4.69734
C         -1.34325       17.64052        4.49111
C         -0.15694       17.03816        4.63574
C         -0.28670       15.62931        4.93460
S         -1.94996       15.27769        5.45207
C          0.62220       14.68754        4.63834
C          1.89760       14.84979        3.95944
C          2.32534       13.72811        3.36003
C          1.42562       12.60357        3.54299
S          0.28468       13.00236        4.80413
C          1.41049       11.47661        2.80067
C          0.39706       10.37857        2.84036
C          0.05193        9.61662        1.70555
O          0.72198        9.85588        0.52774
C         -0.00514        9.63690       -0.68918
C         -0.75766       10.89808       -1.10220
C         -1.57301       10.66017       -2.36290
C         -0.92236        8.61051        1.83033
C         -1.66606        8.46468        3.00318
C         -1.38729        9.25512        4.10159
C         -0.27708       10.08711        4.04095
O         -2.17705        9.12480        5.21145
C         -2.37603       10.31511        6.00269
C         -1.90555       10.05751        7.43310
C         -2.00902       11.28947        8.32088
H         -0.98463       -0.22584        0.09492
H         -3.78715       -4.30366       -0.72971
H          0.71298       -1.32360       -1.95042
H         -6.80120       -0.49848        2.12745
H         -7.36001        1.33778        3.78356
H         -4.37994        4.21905        0.99866
H         -4.32418        1.81124        0.73607
H         -9.40224        4.08615        2.56293
H         -9.91507        4.82817        4.05905
H         -9.45007        1.83471        3.75160
H        -10.97669        2.68981        3.66988
H        -10.07732        2.68047        5.18720
H         -6.40684        4.32746        5.70990
H         -7.72659        3.20099        5.93559
H         -7.78096        6.23717        6.27788
H         -8.01801        4.99558        7.49441
H         -9.26594        5.25954        6.27066
H         -9.02363        6.92044        4.14525
H         -6.06384        8.75576        1.59178
H         -4.87344        6.61191        1.40170
H         -9.12385        9.30954        3.74710
H         -8.01478       10.02073        0.95473
H         -5.77031       13.12609        2.42209
H         -6.64344       11.77637        1.77847
H         -6.00541       12.15261        4.76108
H         -5.20732       11.02067        3.64457
H         -6.89067       10.79156        4.10538
H        -12.07575       14.12275        2.46147
H        -12.76494       11.99609        1.41264
H        -11.14539       10.15923        1.17933
H        -11.02547       15.87092        4.00031
H         -9.58803       17.60956        4.99899
H         -7.20478       17.45558        4.78267
H         -5.26579       15.35837        2.69322
H         -5.37815       16.61317        5.51804
H         -3.87704       18.00976        3.82840
H         -1.45939       18.68014        4.22170
H          0.79515       17.52223        4.48225
H          2.40064       15.80417        3.89025
H          3.21665       13.66978        2.75108
H          2.14992       11.36849        2.00889
H         -0.68805        8.78533       -0.65226
H          0.72960        9.37880       -1.46068
H         -0.04437       11.71448       -1.26346
H         -1.42037       11.22490       -0.29261
H         -0.93040       10.34949       -3.19290
H         -2.09655       11.57411       -2.65872
H         -2.32246        9.87780       -2.20127
H         -1.12853        7.91263        1.02874
H         -2.45433        7.71848        3.05685
H          0.05383       10.52630        4.97015
H         -3.45049       10.53153        6.00128
H         -1.89968       11.20924        5.59156
H         -0.86925        9.70055        7.42537
H         -2.50308        9.24641        7.86552
H         -1.35819       12.09359        7.96220
H         -1.70244       11.04425        9.34375
H         -3.03490       11.66901        8.35983
