103

C         -4.65252       -2.42912       -1.90838
C         -4.71921       -3.22931       -0.81693
C         -4.42517       -4.62344       -0.85927
N         -4.18255       -5.75283       -0.88720
C         -5.01845       -2.73996        0.48652
N         -5.26332       -2.34169        1.54974
C         -4.19785       -2.83278       -3.28087
C         -3.93129       -1.66786       -4.00863
C         -3.48579       -1.66079       -5.32537
C         -3.26212       -2.90397       -5.95955
C         -3.51639       -4.08147       -5.23946
C         -4.00121       -4.06850       -3.90274
S         -3.15138       -5.47759       -6.19601
C         -2.68137       -4.53516       -7.51613
C         -2.78982       -3.18994       -7.28674
Br        -2.07141       -5.25497       -9.13488
C         -4.20400       -0.47032       -3.19975
O         -3.95299        0.68478       -3.50807
C         -4.82985       -0.95477       -1.93545
C         -5.48667       -0.12379       -1.10719
N         -5.67239        1.25095       -1.16167
C         -6.35300        2.05134       -0.27303
S         -6.92442        1.48053        1.26749
C         -7.75976        2.90840        1.56795
N         -8.58633        3.00545        2.72431
O         -8.33459        3.92766        3.50941
O         -9.51939        2.19771        2.81428
C         -7.54217        3.88289        0.63248
C         -6.69576        3.40019       -0.42131
C         -6.25130        4.21416       -1.51833
C         -6.93836        5.23422       -2.06339
C         -6.41859        6.05048       -3.11578
S         -6.96807        7.67975       -3.19988
C         -6.02041        8.06042       -4.57907
C         -5.28550        6.95025       -4.97901
C         -5.51727        5.79193       -4.14123
C         -4.80327        4.48661       -4.39610
C         -4.18743        4.40352       -5.79128
C         -3.41039        5.67983       -6.11316
C         -2.72543        5.52862       -7.44865
O         -1.58128        5.10097       -7.56549
C         -4.34836        6.88606       -6.15931
C         -6.10273        9.39198       -5.09875
C         -5.96444        9.64905       -6.40661
C         -6.03621       10.96661       -7.00817
C         -6.37277       11.19668       -8.28699
C         -6.44870       12.49944       -8.90454
C         -6.98909       12.48287      -10.13381
C         -7.39968       11.16191      -10.57853
S         -6.86936        9.95432       -9.40983
C         -8.13042       10.85963      -11.66886
C         -8.65945       11.78004      -12.65609
C         -9.52175       11.21723      -13.51826
C         -9.74197        9.80370      -13.28587
S         -8.66805        9.22716      -12.03843
C        -10.68796        9.06670      -13.89437
C        -11.01862        7.67580      -13.63633
C        -12.28464        7.18825      -13.70246
C        -12.22866        5.81218      -13.26451
C        -13.20920        4.92974      -12.99683
C        -12.78631        3.65577      -12.44492
C        -13.49955        2.62166      -11.95917
C        -12.58694        1.58804      -11.43498
C        -11.31179        1.96966      -11.68008
C        -11.37490        3.28441      -12.26383
C        -10.39433        4.15031      -12.57059
C        -10.82647        5.45278      -13.03298
C        -10.11713        6.56085      -13.28590
C        -12.97560        0.35023      -10.80087
C        -12.23980       -0.30288       -9.89121
H         -3.30789       -0.72446       -5.84586
H         -4.19208       -5.02060       -3.41756
H         -2.53639       -2.43061       -8.01697
H         -6.00401       -0.54039       -0.25251
H         -5.30244        1.66925       -2.02011
H         -7.96997        4.87721        0.69445
H         -5.25648        3.98602       -1.88040
H         -7.92385        5.49034       -1.68077
H         -5.48794        3.64090       -4.26416
H         -3.99768        4.38769       -3.65759
H         -4.97684        4.24558       -6.53775
H         -3.52860        3.52956       -5.84539
H         -2.63697        5.84755       -5.35261
H         -3.33851        5.73565       -8.34241
H         -4.96014        6.83396       -7.07032
H         -3.74851        7.80318       -6.21947
H         -6.34506       10.19908       -4.41128
H         -5.80868        8.83335       -7.10363
H         -5.80008       11.80567       -6.35732
H         -6.11245       13.39706       -8.40561
H         -7.13639       13.37488      -10.72531
H         -8.40317       12.82947      -12.67770
H        -10.03403       11.76413      -14.29791
H        -11.34453        9.56021      -14.60894
H        -13.18826        7.72439      -13.94108
H        -14.25973        5.15653      -13.11654
H        -14.57463        2.55606      -11.90270
H        -10.40588        1.43553      -11.44736
H         -9.34444        3.93510      -12.42460
H         -9.04604        6.64868      -13.20020
H        -13.95910       -0.03538      -11.06054
H        -11.27099        0.06123       -9.56342
H        -12.60756       -1.21298       -9.42946
