89

C         -5.45407       -3.37787       -5.74547
C         -4.98972       -3.41490       -7.05613
C         -5.26719       -4.54351       -7.86054
C         -4.75412       -4.56573       -9.20463
N         -4.32345       -4.56455      -10.28071
C         -6.00604       -5.63130       -7.34842
C         -6.25672       -6.81088       -8.13342
N         -6.43781       -7.76496       -8.75687
C         -6.47206       -5.59441       -6.02960
C         -6.17126       -4.48048       -5.26180
C         -6.44628       -4.32198       -3.82564
O         -7.24704       -4.96573       -3.18411
C         -5.59132       -3.16859       -3.38509
C         -5.29329       -2.40523       -4.62288
C         -5.08088       -1.07359       -4.74082
C         -4.91276       -0.44195       -6.00531
N         -4.77336        0.04577       -7.05078
C         -5.08368       -0.19959       -3.61753
N         -5.07850        0.51057       -2.69999
C         -5.01459       -3.03732       -2.17482
C         -5.03956       -4.01673       -1.12378
C         -5.09348       -3.84299        0.25084
C         -5.08460       -5.07712        0.98290
O         -5.15144       -5.21778        2.33338
C         -5.69770       -4.09120        3.01884
C         -4.94967       -2.78958        2.76731
S         -5.17237       -2.26473        1.04377
C         -4.95684       -6.19149        0.16499
S         -4.69140       -5.67519       -1.45565
C         -4.92698       -7.64838        0.46801
C         -5.60391       -8.63979       -0.28726
C         -5.50653      -10.05314        0.01242
N         -6.17366      -10.93213       -0.76854
C         -6.85165      -10.50152       -1.86064
C         -6.93738       -9.16883       -2.15041
N         -6.34397       -8.24445       -1.35269
C         -7.59402       -8.67638       -3.32654
N         -8.11103       -8.33375       -4.30579
C         -7.39466      -11.52470       -2.70400
N         -7.82219      -12.33682       -3.41531
C         -4.70190      -10.57183        1.06059
C         -3.96553       -9.60160        1.80480
C         -4.10377       -8.12155        1.52671
N         -3.34310       -7.37842        2.34999
S         -2.57184       -8.39594        3.38637
N         -3.04604       -9.84035        2.75636
C         -4.48947      -12.03078        1.33942
C         -4.31252      -12.75243        2.51691
C         -3.92271      -14.11543        2.29384
O         -3.45036      -15.01408        3.20465
C         -3.58566      -14.65582        4.58038
C         -3.18117      -13.22774        4.89590
S         -4.44781      -12.14544        4.17222
C         -4.03765      -14.50126        0.96918
S         -4.32357      -13.12083       -0.00370
C         -3.84901      -15.77442        0.33702
C         -4.13714      -16.95694        0.90550
C         -3.41737      -18.17351        0.40108
O         -2.95529      -18.37583       -0.70025
C         -3.26879      -19.04663        1.58709
C         -2.48180      -20.18423        1.68466
C         -2.33513      -20.77599        2.94863
C         -2.94457      -20.18771        4.08026
C         -3.75451      -19.04114        3.94439
C         -3.95016      -18.49541        2.68471
C         -4.73744      -17.33707        2.18800
C         -5.90891      -16.88638        2.70010
C         -6.73566      -15.95851        2.00187
N         -7.43649      -15.22060        1.44227
C         -6.42025      -17.35310        3.94295
N         -6.78635      -17.73011        4.97577
C         -2.73621      -20.72081        5.39994
N         -2.56803      -21.11601        6.47590
C         -1.54574      -21.96988        3.06336
N         -0.91622      -22.93935        3.14342
H         -4.38574       -2.61194       -7.47359
H         -7.02331       -6.42423       -5.59843
H         -4.38246       -2.17887       -1.96317
H         -5.62532       -4.32418        4.08764
H         -6.76642       -4.00922        2.78852
H         -3.87939       -2.90006        2.97179
H         -5.34342       -1.99984        3.41573
H         -2.92500      -15.33718        5.12951
H         -4.60526      -14.88566        4.91368
H         -2.20323      -12.98945        4.46230
H         -3.13750      -13.06629        5.97603
H         -3.33591      -15.76886       -0.62639
H         -1.97996      -20.58154        0.80446
H         -4.18789      -18.59046        4.83656
