75

C         -3.89532       -0.05708        2.65458
C         -3.91637        1.26308        3.11509
C         -5.10974        2.00510        3.03735
C         -5.17555        3.22669        3.79227
N         -5.23091        4.20912        4.39848
C         -6.25484        1.48031        2.39526
C         -7.49553        2.32038        2.31527
N         -8.43412        3.00891        2.27573
C         -6.22262        0.13249        1.96456
C         -5.04164       -0.62313        2.17505
C         -4.81539       -2.08710        2.13662
O         -5.49416       -2.80553        2.85415
C         -3.37635       -2.34832        2.02850
C         -2.84476       -1.10689        2.70046
C         -1.72697       -1.09206        3.48283
C         -1.42650       -0.01602        4.40159
N         -1.16554        0.83337        5.14506
C         -0.80860       -2.20174        3.56731
N         -0.03741       -3.05722        3.68088
C         -3.20538       -2.72531        0.72290
C         -3.74380       -4.03233        0.19623
C         -4.15012       -4.25928       -1.11462
C         -4.60552       -5.55129       -1.35057
C         -4.58136       -6.37914       -0.22164
Se        -3.88651       -5.52327        1.23348
C         -5.01048       -7.82499       -0.16456
C         -5.55095       -8.42616        1.02623
C         -5.90512       -9.79967        1.03799
N         -6.36869      -10.35238        2.18738
C         -6.53425       -9.66027        3.32549
C         -6.23099       -8.30745        3.32473
N         -5.74941       -7.72068        2.18451
C         -5.73313      -10.61860       -0.08523
C         -5.18558      -10.04879       -1.24203
C         -4.83397       -8.66764       -1.28911
N         -4.27921       -8.26037       -2.46249
S         -4.28316       -9.63382       -3.37733
N         -4.95779      -10.75277       -2.38139
C         -6.12252      -12.05750       -0.02443
C         -5.52220      -13.05310       -0.74649
C         -6.16890      -14.26543       -0.66119
C         -7.33621      -14.27767        0.11443
Se        -7.46710      -12.72034        1.03206
C         -8.47119      -15.29157       -0.05006
C         -9.42461      -15.86556        0.79292
C        -10.58042      -16.47195        0.17237
O        -10.52913      -17.28745       -0.73923
C        -11.66367      -16.37828        1.12453
C        -12.67824      -15.39207        1.16225
C        -13.47632      -15.23914        2.33210
C        -13.35372      -16.23471        3.29682
C        -12.11597      -16.85193        3.37049
C        -11.17300      -16.60583        2.34529
C         -9.78874      -15.90726        2.28885
C         -9.14539      -14.94107        2.98788
C         -7.77155      -15.29229        3.10829
N         -6.67779      -15.65528        3.14942
C         -9.58321      -13.79274        3.77818
N         -9.81150      -12.86242        4.43611
C        -14.46423      -16.69259        4.10680
N        -15.33074      -17.07974        4.76533
C        -14.33942      -14.11305        2.56867
N        -15.04807      -13.22774        2.80662
H         -3.06759        1.70088        3.61121
H         -7.09370       -0.35763        1.55328
H         -3.13021       -1.93662       -0.02031
H         -4.14294       -3.49825       -1.88892
H         -4.97624       -5.84768       -2.32845
H         -6.89527      -10.17899        4.20810
H         -6.36982       -7.74521        4.23658
H         -4.66264      -12.90495       -1.38280
H         -5.78903      -15.07360       -1.24999
H         -8.62048      -15.53790       -1.10784
H        -12.76047      -14.71206        0.34196
H        -12.15083      -17.81479        3.88872
