79

C          2.46793       -4.23579       -2.26869
C          3.64610       -3.70175       -1.76107
C          4.59813       -4.55944       -1.15912
C          5.79461       -3.97683       -0.61753
N          6.74996       -3.48945       -0.17794
C          4.36232       -5.94928       -1.06548
C          5.28910       -6.83103       -0.41296
N          6.01193       -7.56269        0.12146
C          3.17816       -6.48902       -1.57529
C          2.26531       -5.61764       -2.15051
C          0.91496       -5.97470       -2.59459
O          0.52079       -7.10606       -2.77338
C          0.18377       -4.67216       -2.75107
C          1.23833       -3.63746       -2.87508
C          1.16328       -2.46124       -3.54316
C          2.28969       -1.60347       -3.69595
N          3.22702       -0.92855       -3.80203
C         -0.02302       -2.03521       -4.20658
N         -0.98959       -1.68450       -4.74260
C         -1.13962       -4.51680       -2.55583
C         -2.11498       -5.53846       -2.13696
N         -3.37741       -5.38368       -2.57123
N         -4.38012       -6.26962       -2.16802
C         -4.11352       -7.31719       -1.35905
C         -2.81674       -7.46057       -0.88360
C         -1.83173       -6.53789       -1.22654
C         -5.21600       -8.24808       -1.02640
C         -5.31642       -8.96377        0.18940
C         -6.34529       -9.94265        0.45849
N         -6.30953      -10.61532        1.63229
C         -5.34644      -10.35210        2.54983
C         -4.38811       -9.40807        2.30126
N         -4.38118       -8.71656        1.13503
C         -3.31297       -9.11416        3.20107
N         -2.42367       -8.88149        3.90991
C         -5.39419      -11.10884        3.76050
N         -5.40148      -11.70166        4.75875
C         -7.38224      -10.24537       -0.45862
C         -7.35106       -9.49990       -1.67491
C         -6.25068       -8.50976       -1.96928
N         -6.37354       -7.97385       -3.19485
S         -7.75592       -8.54771       -3.87420
N         -8.24788       -9.57087       -2.67698
C         -8.43665      -11.25839       -0.21387
N         -8.84668      -11.43109        1.06567
N         -9.80695      -12.37825        1.40510
C        -10.35338      -13.14903        0.45013
C        -10.00017      -12.98050       -0.87609
C         -9.02212      -12.04091       -1.20626
C        -11.40790      -14.09217        0.81880
C        -11.64341      -14.78386        1.94390
C        -13.01882      -15.37542        2.02234
O        -13.83715      -15.50375        1.13528
C        -13.22378      -15.75346        3.42071
C        -14.39302      -16.30788        3.92607
C        -14.40656      -16.70159        5.26482
C        -13.25138      -16.52428        6.05343
C        -12.08868      -15.92040        5.51156
C        -12.06467      -15.52181        4.17723
C        -10.99941      -14.98270        3.25686
C         -9.67583      -14.91058        3.54820
C         -8.67330      -14.85294        2.53501
N         -7.85167      -14.91801        1.71780
C         -9.16772      -15.01251        4.87437
N         -8.78376      -15.08960        5.96712
C        -13.20921      -16.99770        7.41019
N        -13.15912      -17.39935        8.49630
C        -15.59985      -17.30191        5.79159
N        -16.57504      -17.78364        6.19251
H          3.84534       -2.63210       -1.77632
H          2.94692       -7.54959       -1.49000
H         -1.60533       -3.53664       -2.62748
H         -2.52641       -8.28154       -0.23836
H         -0.85256       -6.64836       -0.77682
H        -10.46673      -13.56770       -1.66164
H         -8.74431      -11.94519       -2.25109
H        -12.15028      -14.17219        0.02043
H        -15.25776      -16.44706        3.27904
H        -11.22680      -15.81811        6.16503
