97

C         -1.22899       -0.56598        2.88799
C         -0.75243        0.72551        3.08297
C         -0.32394        1.49115        1.97027
C          0.15349        2.82552        2.21149
N          0.52695        3.89883        2.42873
C         -0.38270        0.96146        0.66509
C          0.02711        1.71818       -0.48562
N          0.34678        2.30720       -1.43138
C         -0.87638       -0.33059        0.46341
C         -1.29129       -1.04807        1.57544
C         -1.90824       -2.37503        1.53972
O         -1.91944       -3.07943        0.55421
C         -2.43754       -2.62641        2.92544
C         -1.76188       -1.62459        3.79883
C         -1.49728       -1.73484        5.12647
C         -0.72099       -0.77150        5.83332
N         -0.08597        0.02499        6.38802
C         -1.90434       -2.85432        5.90588
N         -2.24196       -3.76568        6.54351
C         -3.41515       -3.49256        3.24814
C         -4.07005       -4.39481        2.35516
C         -4.43056       -4.29081        1.00745
C         -4.95469       -5.49896        0.50717
C         -4.99480       -6.46032        1.48566
S         -4.58527       -5.93813        3.00359
C         -5.40911       -7.67306        0.90975
C         -5.69719       -7.47121       -0.41806
C         -5.42631       -6.07172       -0.75542
C         -5.57558       -5.44859       -1.94120
C         -6.08330       -6.12997       -3.08232
N         -6.51634       -6.67593       -4.01057
C         -5.27179       -4.06959       -2.10383
N         -5.04150       -2.93582       -2.23573
C         -6.16092       -8.66110       -1.02262
C         -6.13110       -9.74827       -0.13382
S         -5.48495       -9.24342        1.41092
C         -6.50543      -11.17265       -0.34782
C         -6.99565      -12.04208        0.65994
C         -7.27842      -13.42984        0.41171
N         -7.63164      -14.21967        1.45146
C         -7.79387      -13.69375        2.67609
C         -7.59021      -12.36686        2.89816
N         -7.20284      -11.54857        1.90373
C         -7.20546      -14.01062       -0.88016
C         -6.74919      -13.16251       -1.92794
C         -6.36458      -11.73174       -1.65131
N         -5.88952      -11.11382       -2.74862
S         -5.99331      -12.17003       -4.01016
N         -6.61385      -13.48342       -3.22814
C         -7.56472      -15.42075       -1.18853
C         -7.07270      -16.29790       -2.16867
C         -7.66117      -17.57986       -2.06736
C         -8.52118      -17.64509       -0.99844
S         -8.83131      -16.20198       -0.26653
C         -9.01526      -18.95307       -0.86947
C         -8.52664      -19.70892       -1.90570
C         -7.62709      -18.88714       -2.72438
C         -6.94295      -19.25396       -3.82604
C         -7.02499      -20.58295       -4.32785
N         -7.12438      -21.68074       -4.69390
C         -6.11337      -18.34351       -4.53560
N         -5.43279      -17.60803       -5.12176
C         -9.09704      -20.99707       -1.89348
C         -9.89455      -21.20347       -0.75910
S         -9.99092      -19.75516        0.20443
C        -10.65784      -22.33729       -0.34635
C        -10.33325      -23.60321       -0.64023
C        -11.41592      -24.64277       -0.62495
O        -12.44771      -24.64625        0.00965
C        -11.01708      -25.61531       -1.66701
C        -11.78873      -26.64183       -2.18694
C        -11.29339      -27.32887       -3.30548
C        -10.06908      -26.93703       -3.89683
C         -9.29221      -25.90987       -3.32497
C         -9.75209      -25.27896       -2.17979
C         -9.19124      -24.19917       -1.33421
C         -7.88088      -24.00581       -1.04762
C         -7.44941      -23.14758        0.00912
N         -7.08542      -22.46551        0.86858
C         -6.84905      -24.72667       -1.71079
N         -6.02900      -25.32889       -2.26688
C         -9.59860      -27.54498       -5.11088
N         -9.21332      -28.00275       -6.10351
C        -12.05788      -28.42155       -3.83773
N        -12.67461      -29.31420       -4.24554
H         -0.71495        1.18491        4.06713
H         -0.96278       -0.76581       -0.53099
H         -3.76139       -3.55721        4.27624
H         -4.24788       -3.40393        0.41615
H         -6.49481       -8.75191       -2.04908
H         -8.10152      -14.37712        3.45784
H         -7.71806      -11.91647        3.87450
H         -6.31612      -16.00994       -2.88890
H         -8.96122      -21.74563       -2.66197
H        -11.61529      -22.13641        0.13761
H        -12.75605      -26.88110       -1.74894
H         -8.36331      -25.60876       -3.80710
