97

C         -1.61235       -2.72011        4.83606
C         -1.74147       -2.28968        6.15109
C         -1.43435       -3.18223        7.20549
C         -1.58487       -2.71951        8.55802
N         -1.71308       -2.33163        9.64291
C         -1.01002       -4.50340        6.93400
C         -0.75229       -5.44349        7.98880
N         -0.55409       -6.22349        8.82275
C         -0.87143       -4.93479        5.61092
C         -1.18043       -4.03597        4.60288
C         -1.21881       -4.34078        3.16616
O         -0.66930       -5.27509        2.62583
C         -2.01179       -3.22366        2.55703
C         -1.92925       -2.10002        3.51477
C         -1.95306       -0.77882        3.21834
C         -1.69529        0.22166        4.19785
N         -1.47277        1.01166        5.01717
C         -2.14780       -0.30986        1.88646
N         -2.31886        0.05150        0.79788
C         -2.83577       -3.38685        1.50800
C         -3.01809       -4.64998        0.87431
C         -2.39868       -5.17854       -0.25968
C         -2.89314       -6.46963       -0.56067
C         -3.85102       -6.86180        0.34555
S         -4.20256       -5.75089        1.52695
C         -4.32714       -8.13854       -0.01317
C         -3.68104       -8.56307       -1.14908
C         -2.71759       -7.53264       -1.55753
C         -1.86645       -7.55265       -2.60195
C         -1.80358       -8.65777       -3.49319
N         -1.75060       -9.55861       -4.22488
C         -0.98130       -6.46998       -2.86300
N         -0.26338       -5.58293       -3.07734
C         -4.16896       -9.82516       -1.57319
C         -5.16032      -10.32551       -0.71170
S         -5.48182       -9.17020        0.56479
C         -5.95313      -11.58873       -0.77599
C         -6.38933      -12.32871        0.35177
C         -7.18820      -13.53280        0.23917
N         -7.54526      -14.19173        1.36435
C         -7.19122      -13.69561        2.56616
C         -6.44370      -12.55569        2.67165
N         -6.02827      -11.88753        1.57790
F         -6.09533      -12.07699        3.87351
F         -7.58456      -14.35635        3.66314
C         -7.60813      -14.06367       -1.00861
C         -7.16470      -13.36359       -2.16760
C         -6.32416      -12.11069       -2.04957
N         -6.01739      -11.59116       -3.25210
S         -6.67043      -12.57089       -4.40803
N         -7.42513      -13.68155       -3.44874
C         -8.47916      -15.26498       -1.17478
C         -8.52052      -16.23992       -2.18801
C         -9.53555      -17.20386       -1.95868
C        -10.21543      -16.93493       -0.79538
S         -9.74697      -15.56378       -0.00546
C        -11.23753      -17.88500       -0.61675
C        -11.23055      -18.74929       -1.68430
C        -10.11877      -18.40071       -2.57965
C         -9.71329      -19.05433       -3.68486
C        -10.36550      -20.24293       -4.11891
N        -10.92058      -21.21456       -4.43071
C         -8.59304      -18.61665       -4.43946
N         -7.67160      -18.26913       -5.05649
C        -12.32147      -19.64314       -1.61548
C        -13.07360      -19.45383       -0.44784
S        -12.42519      -18.15081        0.50946
C        -14.27212      -20.08368        0.00287
C        -14.58101      -21.36597       -0.22829
C        -16.02552      -21.76725       -0.16305
O        -16.92611      -21.24457        0.45522
C        -16.15308      -22.87613       -1.13252
C        -17.33271      -23.42615       -1.60725
C        -17.24742      -24.33937       -2.66790
C        -15.99094      -24.65078       -3.23854
C        -14.80602      -24.09428       -2.71468
C        -14.88840      -23.22642       -1.63544
C        -13.86675      -22.47254       -0.86676
C        -12.60775      -22.89611       -0.58871
C        -11.78914      -22.25363        0.39311
N        -11.11026      -21.75740        1.19199
C        -12.06018      -24.06997       -1.16168
N        -11.64136      -25.04029       -1.64227
C        -15.88722      -25.50838       -4.38681
N        -15.78365      -26.17893       -5.32679
C        -18.45828      -24.92344       -3.17066
N        -19.44401      -25.39335       -3.55967
H         -2.10509       -1.29375        6.39710
H         -0.57456       -5.95272        5.36462
H         -3.51011       -2.59789        1.18714
H         -1.63792       -4.63417       -0.80597
H         -3.84408      -10.35658       -2.46037
H         -7.85328      -16.22508       -3.04238
H        -12.58849      -20.36845       -2.37329
H        -15.02061      -19.43743        0.46560
H        -18.28967      -23.12591       -1.18443
H        -13.85336      -24.32845       -3.18729
