99

C         -5.95446       -2.15855        5.64325
C         -6.58417       -1.69400        6.79183
C         -6.53892       -2.47063        7.97335
C         -7.20587       -1.96972        9.14392
N         -7.75255       -1.54935       10.07545
C         -5.87109       -3.71561        7.99366
C         -5.86116       -4.54373        9.16682
N         -5.85657       -5.23192       10.09949
C         -5.23285       -4.18288        6.83992
C         -5.29902       -3.39663        5.69930
C         -4.77751       -3.75656        4.37502
O         -3.92432       -4.59219        4.17245
C         -5.43566       -2.80775        3.41344
C         -5.85431       -1.64680        4.24296
C         -5.94953       -0.35190        3.85329
C         -6.23061        0.70126        4.76901
N         -6.46102        1.54053        5.53570
C         -5.69965        0.05838        2.51196
N         -5.50585        0.37131        1.41215
C         -5.75890       -3.06764        2.13251
C         -5.56304       -4.29751        1.42432
C         -5.33322       -4.45185        0.04886
C         -5.28387       -5.81323       -0.32862
C         -5.44863       -6.63423        0.76031
S         -5.81720       -5.85508        2.17234
C         -5.40351       -7.97483        0.33757
C         -5.25666       -8.01401       -1.02549
C         -5.15432       -6.64144       -1.53261
C         -5.03275       -6.23427       -2.81077
C         -4.96529       -7.16035       -3.88712
N         -4.92738       -7.91755       -4.76569
C         -5.00329       -4.85486       -3.15240
N         -4.99425       -3.72698       -3.42494
C         -5.35871       -9.34052       -1.50942
C         -5.65287      -10.25548       -0.48122
S         -5.52293       -9.45024        1.06709
C         -6.19163      -11.64667       -0.58080
C         -6.99921      -12.25243        0.41195
C         -8.00754      -13.20804        0.08186
N         -9.00163      -13.40064        0.97982
C         -8.88685      -12.93390        2.24145
C         -7.72816      -12.34913        2.64170
N         -6.82152      -11.94522        1.72190
C         -7.32962      -12.32862        4.01548
N         -7.01392      -12.43512        5.12752
C        -10.04611      -13.02040        3.07435
N        -10.99381      -13.00993        3.74480
C         -7.97874      -13.96475       -1.12004
C         -7.00391      -13.55103       -2.07709
C         -6.12095      -12.34963       -1.81578
N         -5.30628      -12.07992       -2.85044
S         -5.55890      -13.23177       -4.00495
N         -6.75461      -14.10519       -3.27587
C         -8.72083      -15.25270       -1.30960
C         -8.40190      -16.36090       -2.11293
C         -9.12209      -17.51685       -1.72660
C         -9.99981      -17.24162       -0.70901
S        -10.13607      -15.63769       -0.34342
C        -10.50921      -18.45173       -0.19633
C         -9.99107      -19.49641       -0.92445
C         -9.12015      -18.95957       -1.97649
C         -8.44992      -19.63213       -2.93076
C         -8.55175      -21.04722       -3.05427
N         -8.63227      -22.19589       -3.14304
C         -7.59834      -18.96833       -3.85378
N         -6.88582      -18.42189       -4.59174
C        -10.36270      -20.74519       -0.37360
C        -11.10174      -20.59647        0.80717
S        -11.36306      -18.89742        1.15345
C        -11.48199      -21.61988        1.73874
C        -12.58519      -21.61410        2.50113
C        -12.70427      -22.51725        3.70199
O        -12.10681      -23.54638        3.92680
C        -13.64428      -21.82022        4.61778
C        -14.00839      -22.17464        5.90528
C        -14.76541      -21.25184        6.64678
C        -15.05136      -19.97192        6.11411
C        -14.73462      -19.67095        4.77661
C        -14.09372      -20.63535        4.01578
C        -13.72873      -20.71054        2.58666
C        -14.56497      -20.39811        1.56684
C        -14.33463      -20.87986        0.24343
N        -14.15601      -21.31480       -0.81718
C        -15.81340      -19.75408        1.79751
N        -16.83083      -19.25155        2.03720
C        -15.63022      -18.93873        6.92831
N        -16.04772      -18.07702        7.58159
C        -15.26793      -21.64216        7.93422
N        -15.71437      -21.98337        8.94808
H         -7.13954       -0.75844        6.80546
H         -4.72786       -5.14706        6.81270
H         -6.28541       -2.31679        1.54882
H         -5.22978       -3.60081       -0.61492
H         -5.35751       -9.61138       -2.55771
H         -7.58799      -16.35842       -2.82631
H        -10.06452      -21.71899       -0.74483
H        -10.75389      -22.41859        1.88747
H        -13.71417      -23.13747        6.31763
H        -14.97898      -18.69382        4.36203
