89

C         -2.44863        0.35147       -1.46032
C         -2.65028        1.65156       -1.01757
C         -2.18441        2.02492        0.26719
C         -2.42008        3.36978        0.70975
N         -2.62281        4.45847        1.04787
C         -1.53115        1.09033        1.10399
C         -1.10836        1.42677        2.43411
N         -0.77050        1.66650        3.51672
C         -1.32022       -0.21475        0.65627
C         -1.78596       -0.54237       -0.60581
C         -1.76317       -1.88312       -1.19044
O         -1.03799       -2.78642       -0.83735
C         -2.75762       -1.83751       -2.30880
C         -2.87590       -0.40655       -2.67518
C         -3.14797        0.10627       -3.90033
C         -3.07678        1.50346       -4.16364
N         -3.00228        2.64632       -4.34588
C         -3.44337       -0.71953       -5.02242
N         -3.69890       -1.40689       -5.92592
C         -3.54371       -2.86019       -2.68243
C         -3.58684       -4.14065       -2.04853
C         -3.39133       -4.50883       -0.71272
C         -3.71270       -5.85784       -0.48758
C         -4.12314       -6.47513       -1.64462
S         -4.09552       -5.51767       -2.99854
C         -4.55261       -7.77819       -1.32935
C         -4.41629       -7.97594        0.02698
C         -3.82177       -6.78796        0.63340
C         -3.44438       -6.60220        1.91371
C         -3.59323       -7.62339        2.89188
N         -3.71288       -8.45754        3.68979
C         -2.85510       -5.38431        2.35357
N         -2.38686       -4.38557        2.71570
C         -4.93977       -9.22023        0.42249
C         -5.44625       -9.91828       -0.67479
S         -5.22929       -9.04388       -2.15868
C         -6.11030      -11.19533       -0.66322
C         -6.12116      -12.15844       -1.65210
C         -6.86210      -13.31529       -1.27439
C         -7.39915      -13.20554       -0.00695
S         -7.05073      -11.68111        0.68172
C         -8.12114      -14.20200        0.73830
C         -9.12686      -14.00509        1.68659
C         -9.52336      -15.23091        2.25492
C         -8.82013      -16.28600        1.71685
S         -7.72301      -15.88075        0.54608
C         -9.27827      -17.48491        2.29019
C        -10.29157      -17.18914        3.16936
C        -10.45802      -15.73914        3.25487
C        -11.22955      -15.04565        4.11515
C        -12.00222      -15.71528        5.10454
N        -12.60362      -16.31456        5.89690
C        -11.26593      -13.62493        4.11361
N        -11.29848      -12.46513        4.10917
C        -10.90951      -18.35930        3.64248
C        -10.24465      -19.50643        3.19654
S         -8.93049      -19.09770        2.12798
C        -10.53530      -20.88237        3.41772
C        -11.09441      -21.35954        4.53798
C        -11.81577      -22.66732        4.42614
O        -11.64946      -23.55511        3.61843
C        -12.88219      -22.60064        5.44205
C        -13.93967      -23.48761        5.57185
C        -14.92944      -23.19061        6.51671
C        -14.84194      -22.00765        7.28558
C        -13.75176      -21.12415        7.12795
C        -12.75152      -21.43431        6.21684
C        -11.48659      -20.75528        5.81776
C        -10.73479      -19.93343        6.59087
C         -9.39568      -19.56465        6.24969
N         -8.30708      -19.26233        5.99346
C        -11.19224      -19.43286        7.84198
N        -11.58706      -19.03127        8.85649
C        -15.86256      -21.66572        8.23813
N        -16.67988      -21.37535        9.00683
C        -16.03170      -24.09909        6.66313
N        -16.91213      -24.84551        6.76742
H         -3.18775        2.38612       -1.61432
H         -0.84927       -0.97200        1.28103
H         -4.30253       -2.70732       -3.44662
H         -3.09166       -3.81284        0.05862
H         -4.98782       -9.60342        1.43513
H         -5.60013      -12.06061       -2.59711
H         -6.96780      -14.19219       -1.90237
H         -9.51793      -13.02511        1.93467
H        -11.79866      -18.39301        4.25773
H        -10.39852      -21.55108        2.56566
H        -13.99818      -24.37012        4.93730
H        -13.73158      -20.20600        7.71156
