97

C          1.01347       -2.81496       -0.22767
C          1.12002       -1.46915        0.08754
C          0.62880       -0.50514       -0.82920
C          0.72416        0.88306       -0.47896
N          0.79983        2.00242       -0.18433
C          0.03981       -0.90013       -2.05137
C         -0.52726        0.04935       -2.96352
N         -1.01844        0.79004       -3.71073
C         -0.04051       -2.25424       -2.37815
C          0.43174       -3.16465       -1.44948
C          0.39081       -4.61614       -1.59084
O          0.53486       -5.15189       -2.66741
C          0.54031       -5.15674       -0.20206
C          1.34715       -4.09264        0.48568
C          2.31519       -4.24638        1.41498
C          3.11399       -3.14955        1.88018
N          3.73976       -2.24747        2.23554
C          2.67111       -5.52556        1.93234
N          2.96802       -6.56072        2.35966
C         -0.17532       -6.12508        0.41273
C         -1.36774       -6.98318        0.04074
C         -2.15374       -7.46540        1.11241
F         -1.78377       -7.11119        2.36304
C         -3.31935       -8.29521        0.99033
O         -3.78826       -8.57496        2.24142
C         -4.76239       -9.53767        2.56419
C         -3.78097       -8.65325       -0.28525
C         -3.02334       -8.10419       -1.35815
C         -1.82881       -7.34757       -1.22433
O         -1.05151       -7.00830       -2.28898
C         -1.62871       -6.99499       -3.59004
F         -3.50423       -8.31856       -2.59755
C         -4.94240       -9.51975       -0.70620
C         -6.29831       -9.31948       -0.39192
C         -7.39214      -10.09524       -0.98863
N         -8.65220       -9.89405       -0.55466
C         -8.84436       -9.04897        0.48369
C         -7.82047       -8.30466        1.01710
N         -6.55900       -8.39203        0.54715
F         -8.03008       -7.54794        2.10330
F        -10.05392       -9.04084        1.06196
C         -7.20009      -11.08286       -1.98783
C         -5.83970      -11.36315       -2.28106
C         -4.70913      -10.59935       -1.62416
N         -3.50279      -11.05022       -2.01634
S         -3.75024      -12.22222       -3.15342
N         -5.39934      -12.30271       -3.13654
C         -8.28698      -11.81855       -2.70981
C         -8.42706      -11.72775       -4.11340
F         -7.53707      -10.99151       -4.80257
C         -9.44992      -12.38988       -4.84204
O         -9.42794      -12.21654       -6.20883
C         -9.35255      -13.41961       -6.98216
C        -10.47187      -13.07282       -4.15958
C        -10.29505      -13.23734       -2.77234
C         -9.21524      -12.65420       -2.06712
O         -8.94401      -13.08261       -0.78818
C         -9.77772      -12.49299        0.20431
F        -11.17333      -13.99136       -2.08707
C        -11.63403      -13.66596       -4.86870
C        -12.93533      -13.72760       -4.54746
C        -13.79002      -14.69510       -5.32186
O        -13.62787      -15.11232       -6.44829
C        -14.83077      -15.12839       -4.37377
C        -15.66488      -16.22673       -4.52449
C        -16.41831      -16.62987       -3.41512
C        -16.31668      -15.91861       -2.19709
C        -15.48754      -14.77916       -2.09079
C        -14.74684      -14.37378       -3.19164
C        -13.72893      -13.30328       -3.39457
C        -13.70161      -12.09506       -2.78453
C        -12.83655      -11.04752       -3.21479
N        -12.13927      -10.18354       -3.55822
C        -14.59939      -11.75720       -1.73668
N        -15.34146      -11.51100       -0.87650
C        -17.00488      -16.36665       -1.01725
N        -17.52687      -16.72412       -0.04732
C        -17.23798      -17.80405       -3.53043
N        -17.88576      -18.75968       -3.63762
H          1.54432       -1.12793        1.02906
H         -0.48519       -2.60208       -3.30852
H          0.04686       -6.25705        1.47381
H         -5.66893       -9.02092        2.89355
H         -4.39819      -10.10015        3.42930
H         -4.97448      -10.25846        1.77898
H         -0.94009       -6.48098       -4.26648
H         -2.57065       -6.43641       -3.60121
H         -1.75193       -8.01354       -3.96999
H        -10.30271      -13.55981       -7.51043
H         -9.11706      -14.31418       -6.39260
H         -8.57920      -13.30553       -7.74769
H        -10.33424      -13.27679        0.72364
H        -10.47948      -11.74836       -0.18608
H         -9.11741      -12.02104        0.93955
H        -11.35797      -14.21387       -5.76631
H        -15.67925      -16.78352       -5.46004
H        -15.40274      -14.27495       -1.13026
