131

C        -14.52014       -1.30743        3.53365
C        -15.50572       -0.34804        3.71247
C        -16.85340       -0.75462        3.87080
C        -17.85307        0.25744        4.06043
N        -18.64635        1.08859        4.21634
C        -17.21031       -2.12101        3.83165
C        -18.57519       -2.55407        3.94352
N        -19.66709       -2.93184        4.02081
C        -16.21953       -3.08799        3.65655
C        -14.90998       -2.65595        3.51898
C        -13.75628       -3.51880        3.26863
O        -13.73386       -4.71074        3.48213
C        -12.66986       -2.60415        2.78416
C        -13.04578       -1.25850        3.27619
C        -12.20680       -0.24231        3.60220
C        -12.66769        0.96062        4.20551
N        -13.06739        1.93042        4.70283
C        -10.79373       -0.34532        3.44197
N         -9.64720       -0.43643        3.29886
C        -11.71356       -2.95474        1.90219
C        -11.51378       -4.26501        1.24168
C        -12.58971       -5.08537        0.85919
C        -12.39932       -6.32020        0.23114
C        -11.12636       -6.70347       -0.13237
C        -10.04993       -5.91026        0.27956
C        -10.21605       -4.68623        0.92339
N         -8.84738       -6.58192        0.02777
C         -7.55321       -6.11804        0.45142
C         -9.08154       -7.84015       -0.51980
O         -8.26155       -8.72743       -0.65474
C        -10.55953       -7.87028       -0.84766
C        -11.13637       -8.71187       -1.73459
C        -12.60173       -8.63708       -2.13686
O        -13.39674       -7.73692       -1.94513
N        -12.85117       -9.77852       -2.88518
C        -14.09113      -10.01123       -3.58442
C        -11.66119      -10.46102       -3.15813
C        -10.58089       -9.82650       -2.54373
C         -9.31503      -10.24770       -2.89388
C         -9.15729      -11.29366       -3.82475
C        -10.24366      -11.98779       -4.40720
C        -11.51971      -11.55043       -4.01339
C        -10.05428      -13.08154       -5.41873
C        -10.97346      -13.38307       -6.46235
C        -10.79460      -14.47140       -7.39819
N        -11.77003      -14.72618       -8.30174
C        -12.87590      -13.94533       -8.35698
C        -13.02218      -12.88701       -7.51028
N        -12.07673      -12.60812       -6.57988
C        -14.16629      -12.02735       -7.51256
N        -15.10045      -11.33877       -7.50719
C        -13.84587      -14.29932       -9.34726
N        -14.63759      -14.57219      -10.15193
C         -9.64218      -15.29481       -7.42296
C         -8.66379      -14.98482       -6.42463
C         -8.88850      -13.90574       -5.39929
N         -7.88547      -13.85066       -4.50402
S         -6.73224      -14.93370       -4.94677
N         -7.45960      -15.56836       -6.27662
C         -9.42602      -16.42516       -8.38445
C         -8.68048      -17.56257       -8.01623
C         -8.44315      -18.63448       -8.88442
C         -9.02955      -18.65794      -10.13244
C         -9.74606      -17.53205      -10.53575
C         -9.93983      -16.42989       -9.69883
N        -10.16184      -17.68334      -11.86570
C        -10.96877      -16.74153      -12.59699
C         -9.75811      -18.91145      -12.38899
O         -9.94515      -19.30681      -13.52402
C         -9.04913      -19.62693      -11.25773
C         -8.55411      -20.88109      -11.33082
C         -7.84073      -21.54050      -10.17413
O         -8.05723      -21.42104       -8.98325
N         -6.98071      -22.46753      -10.74652
C         -6.17150      -23.34657       -9.94621
C         -7.41044      -22.74898      -12.05216
C         -8.42753      -21.86154      -12.43606
C         -9.15822      -22.15371      -13.57366
C         -8.90211      -23.35846      -14.25895
C         -7.90170      -24.25820      -13.83394
C         -7.06275      -23.87213      -12.78789
C         -7.81997      -25.59572      -14.46061
C         -7.39744      -26.75634      -13.92883
C         -7.20630      -27.94930      -14.82602
O         -7.71836      -28.17185      -15.90093
C         -6.18976      -28.78426      -14.15229
C         -5.59390      -29.93176      -14.64889
C         -4.54104      -30.49319      -13.91249
C         -4.07982      -29.85895      -12.73578
C         -4.73428      -28.71421      -12.23535
C         -5.83138      -28.21117      -12.92176
C         -6.81655      -27.13728      -12.63582
C         -7.31310      -26.88145      -11.39869
C         -8.54574      -26.19165      -11.20990
N         -9.56162      -25.66124      -11.03878
C         -6.68821      -27.36009      -10.21043
N         -6.12543      -27.72487       -9.26515
C         -2.92975      -30.34946      -12.02763
N         -1.98702      -30.70839      -11.45484
C         -3.95470      -31.71751      -14.37663
N         -3.50609      -32.72063      -14.75091
H        -15.28007        0.71640        3.71474
H        -16.45486       -4.14989        3.59940
H        -11.00808       -2.20793        1.54022
H        -13.61960       -4.79984        1.05285
H        -13.27039       -6.94186        0.06502
H         -9.35557       -4.08087        1.18787
H         -7.22055       -5.33692       -0.23803
H         -6.82788       -6.93644        0.43400
H         -7.60649       -5.72074        1.46870
H        -14.85205       -9.29095       -3.27006
H        -14.44717      -11.02176       -3.36831
H        -13.92945       -9.89134       -4.66065
H         -8.41397       -9.77512       -2.52741
H         -8.12922      -11.53127       -4.09234
H        -12.41937      -12.01931       -4.39200
H         -8.24225      -17.66043       -7.02475
H         -7.78758      -19.40842       -8.51536
H        -10.48924      -15.57745      -10.07916
H        -12.02128      -17.00894      -12.46407
H        -10.72952      -16.79897      -13.66326
H        -10.79979      -15.71652      -12.25874
H         -6.02574      -22.92485       -8.94714
H         -5.19669      -23.48016      -10.42152
H         -6.67739      -24.30798       -9.83528
H         -9.98946      -21.53872      -13.90065
H         -9.54619      -23.61230      -15.10108
H         -6.23266      -24.48580      -12.46801
H         -8.15325      -25.60641      -15.50106
H         -5.94009      -30.37003      -15.58260
H         -4.36368      -28.24340      -11.32651
