72

C          1.14392        6.35657       -5.09988
C          0.31256        7.44946       -5.38529
C         -0.76553        7.78163       -4.54924
C         -1.01814        7.04029       -3.39758
C         -0.18429        5.96598       -3.13350
C          0.87939        5.59000       -3.97489
C          1.50386        4.36789       -3.40293
C          2.16144        3.40919       -4.09904
C          2.57527        3.58581       -5.44871
N          2.93409        3.74020       -6.54182
C          2.41789        2.11755       -3.55230
N          2.60590        1.04943       -3.13143
C          1.02393        4.26993       -2.01737
C         -0.20892        5.12113       -1.92481
O         -1.01398        5.17391       -1.01918
C          1.56345        3.86557       -0.85647
C          2.91234        3.43156       -0.66182
C          3.35536        2.48003        0.24207
C          4.77486        2.33040        0.20558
C          5.37161        3.15934       -0.69147
S          4.23295        4.22423       -1.45091
C          6.78029        2.97467       -0.77916
C          7.23675        2.05920        0.15355
S          5.94097        1.34347        1.03839
C          8.62130        1.70156        0.40708
C          9.15934        0.86370        1.36206
F          8.45862        0.20588        2.24573
C         10.56486        0.76225        1.30149
F         11.25060       -0.00486        2.10673
C         11.12299        1.50853        0.29117
S          9.89521        2.37026       -0.54602
C         12.50331        1.61098       -0.11970
C         12.94433        1.72539       -1.42335
C         14.36364        1.76662       -1.48883
C         14.96037        1.78437       -0.26542
S         13.79428        1.58601        1.01659
C         16.37503        1.97819       -0.34638
C         16.79173        2.15725       -1.65640
S         15.52212        1.79448       -2.77719
C         18.11117        2.44404       -2.12149
C         18.41720        3.22110       -3.17379
C         17.63387        4.02442       -4.12585
C         16.61992        4.87594       -3.83193
C         15.88469        5.58360       -4.82420
N         15.26154        6.13394       -5.63388
C         16.26249        5.18457       -2.48528
N         15.98932        5.48091       -1.39665
C         18.36025        3.96081       -5.42555
C         19.64930        3.47559       -5.17513
C         19.78337        3.05779       -3.76699
O         20.77970        2.61345       -3.23692
C         20.63878        3.37585       -6.14528
C         20.31793        3.80067       -7.45513
C         19.01569        4.24748       -7.72026
C         18.01212        4.31622       -6.72216
S         18.83365        4.69695       -9.37691
C         20.46250        4.34730       -9.73027
C         21.13587        3.86378       -8.63357
H          1.97731        6.15687       -5.76549
H          0.50873        8.05398       -6.26993
H         -1.39459        8.63493       -4.79480
H         -1.82555        7.30303       -2.72084
H          0.96813        3.95080        0.05397
H          2.70392        1.90764        0.89158
H          7.40573        3.52852       -1.46807
H         12.30055        1.75570       -2.29361
H         17.02798        2.04221        0.51604
H         18.91641        1.91900       -1.60592
H         21.62570        2.99564       -5.89669
H         17.02145        4.65709       -7.00016
H         20.84953        4.50767      -10.72743
H         22.18056        3.57801       -8.66447
