94

C          0.95565       -3.82875        7.60044
O          1.94447       -4.46310        7.91694
C         -0.33327       -3.80915        8.21861
C         -1.15849       -2.81797        7.75957
C         -2.42465       -2.86511        8.38092
C         -2.48262       -3.90944        9.29425
S         -1.00236       -4.79724        9.38489
C         -0.45264       -2.02430        6.77389
C         -0.81076       -0.79457        6.33719
C         -2.02132       -0.17163        6.75804
N         -3.00971        0.33343        7.09497
C          0.00909       -0.00618        5.48305
N          0.68276        0.62961        4.78017
C          0.81697       -2.79307        6.48036
C          1.59267       -2.71353        5.38390
C          2.70210       -3.55442        5.06498
C          2.92963       -4.91636        5.28255
C          4.18458       -5.32601        4.79253
C          4.84846       -4.28856        4.18482
S          4.02443       -2.85042        4.15589
C          6.09083       -4.75916        3.71871
C          6.21480       -6.09440        4.03053
C          5.00000       -6.53736        4.71654
C          4.68700       -7.77669        5.14176
C          3.44254       -8.06460        5.76705
N          2.41854       -8.31038        6.25463
C          5.56552       -8.87454        4.94105
N          6.27979       -9.77045        4.75279
C          7.44631       -6.62221        3.58242
C          8.20328       -5.64360        2.93897
S          7.37013       -4.11076        2.89358
C          9.45789       -5.78599        2.23862
C         10.47325       -4.86112        2.08827
C         10.66711       -3.67645        2.91664
O         10.48731       -3.67278        4.12339
C         11.14242       -2.53375        2.13809
C         11.70498       -2.70439        0.80100
C         11.84724       -1.48421        0.15548
S         11.60733       -0.18184        1.24989
C         11.10077       -1.20480        2.53430
C         10.66396       -0.53771        3.81274
F         10.20031       -1.37536        4.76404
F         11.68593        0.15861        4.37583
F          9.66483        0.35465        3.57997
C         12.11435       -1.13582       -1.28289
F         12.21809       -2.20210       -2.10622
F         11.09160       -0.38858       -1.78436
F         13.24345       -0.40002       -1.42966
C         11.97641       -4.03458        0.21332
O         12.70577       -4.18991       -0.75214
C         11.22877       -5.10927        0.87971
C         11.14750       -6.45209        0.53433
S          9.80537       -7.18885        1.33373
C         11.96967       -7.27359       -0.32703
C         11.56453       -8.37384       -1.08830
C         12.67054       -9.02570       -1.66656
C         13.85263       -8.38163       -1.37334
S         13.69894       -7.07867       -0.36132
C         14.90894       -9.04043       -2.03534
C         14.38515      -10.08967       -2.75255
C         12.95490      -10.19990       -2.48469
C         12.13962      -11.22704       -2.79725
C         10.77952      -11.25450       -2.38699
N          9.66964      -11.27176       -2.04765
C         12.63912      -12.36830       -3.48957
N         13.10846      -13.27870       -4.03282
C         15.35716      -10.70185       -3.56167
C         16.63503      -10.21806       -3.27458
S         16.55297       -8.85869       -2.17755
C         17.90329      -10.60608       -3.79245
C         18.22363      -11.84354       -4.20233
C         19.40470      -11.93779       -5.16397
O         20.29922      -11.12309       -5.30567
C         19.12938      -13.14945       -5.87613
C         18.03886      -13.83556       -5.40455
C         17.52602      -13.16514       -4.22732
C         16.76643      -13.73533       -3.26236
C         16.18298      -15.02203       -3.43007
N         15.70427      -16.07156       -3.57228
C         16.56623      -13.14042       -1.98469
N         16.39530      -12.67785       -0.93299
C         17.76509      -14.98309       -6.17640
C         18.69672      -15.11548       -7.19719
S         19.86790      -13.84267       -7.20186
H         -3.26937       -2.20989        8.20506
H         -3.31730       -4.20045        9.91858
H          1.37480       -1.97246        4.62054
H          2.22138       -5.55833        5.78977
H          7.78149       -7.64743        3.68544
H         10.52959       -8.68354       -1.17391
H         15.16954      -11.47802       -4.29125
H         18.62156       -9.79964       -3.95222
H         16.95852      -15.69290       -6.03462
H         18.75202      -15.89620       -7.94487
