92

C          4.26051        0.16526       -7.49116
S          2.67192        0.35987       -6.64587
C          3.18211       -0.09751       -4.99563
C          3.64121        0.92525       -4.14208
C          3.77200        2.34328       -4.35252
C          4.23332        3.02179       -3.25030
C          4.41405        4.43696       -3.09779
N          5.34882        4.93446       -2.31447
C          5.23647        6.28473       -2.32958
S          6.11818        7.52889       -1.53051
C          5.09190        8.67489       -2.33433
C          5.26621       10.09165       -2.17286
C          4.28603       11.05690       -2.23052
C          4.78893       12.40211       -2.07379
C          4.14087       13.65648       -2.06561
S          2.35917       13.67642       -2.18261
C          2.20369       13.78542       -3.98306
C          4.86520       14.85707       -1.97182
S          4.28748       16.48905       -1.99254
C          5.85460       17.16738       -1.90985
C          6.02267       18.57647       -2.01404
C          7.06230       19.26129       -1.51036
C          7.36783       20.59997       -2.16078
O          6.58328       21.32240       -2.74850
C          8.78094       20.72400       -1.95420
S          9.87667       21.86726       -2.47453
C         11.15412       21.01335       -1.67898
C         10.71668       19.86239       -1.03804
C          9.32421       19.72013       -1.19158
C          8.25693       18.87978       -0.70250
C          8.29528       18.16178        0.44347
C          9.52253       17.82465        1.08892
N         10.52444       17.51690        1.58693
C          7.10767       17.85510        1.15884
N          6.15794       17.68525        1.81245
C          6.79519       16.16510       -1.83547
C          6.25564       14.83431       -1.86310
C          6.89762       13.58512       -1.82639
S          8.68196       13.56924       -1.69549
C          8.82540       13.53688        0.10923
C          6.17936       12.39099       -1.93643
S          6.79572       10.78619       -1.93436
N          4.13540        8.18528       -3.10137
C          4.25291        6.83115       -3.10045
S          3.38433        5.57480       -3.90891
S          4.59649        1.95221       -1.97825
C          4.04206        0.57047       -2.84945
C          3.94864       -0.76102       -2.41717
S          4.46908       -1.22556       -0.76780
C          5.79503       -2.39946       -1.17271
C          3.37915       -1.75588       -3.23813
C          3.00376       -3.11652       -2.95536
C          2.47293       -3.79948       -4.02621
C          1.89456       -5.09565       -4.09497
C          2.27813       -6.15551       -3.36650
C          1.26564       -7.28806       -3.24094
O          0.33048       -7.51968       -3.98562
C          1.66991       -7.93135       -2.02692
S          1.02347       -9.22285       -1.19092
C          2.27384       -9.09002       -0.00336
C          3.15030       -8.04481       -0.26211
C          2.80230       -7.39894       -1.46253
C          3.34417       -6.39441       -2.35243
C          4.64485       -6.01008       -2.37571
C          5.50438       -6.22017       -1.26272
N          6.18293       -6.33643       -0.32228
C          5.25676       -5.45069       -3.53378
N          5.81211       -5.04166       -4.46290
S          2.47617       -2.80125       -5.41042
C          3.04328       -1.41693       -4.54787
H          4.12946        0.39825       -8.55101
H          4.62262       -0.86215       -7.40159
H          5.00401        0.85004       -7.07427
H          3.50858        2.83727       -5.28124
H          3.24079       10.81172       -2.38963
H          1.14760       13.88208       -4.24757
H          2.60070       12.88284       -4.45526
H          2.73882       14.65838       -4.36567
H          5.32388       19.09584       -2.67383
H         12.16040       21.40854       -1.71494
H         11.38828       19.21559       -0.48595
H          7.86067       16.35239       -1.81196
H          9.88338       13.50827        0.38186
H          8.33274       12.65350        0.52353
H          8.37928       14.43674        0.54111
H          5.99792       -3.02414       -0.29873
H          6.70829       -1.87626       -1.46223
H          5.50900       -3.06248       -1.98860
H          3.08754       -3.54638       -1.96544
H          0.99408       -5.17737       -4.70659
H          2.30937       -9.79126        0.81942
H          3.99239       -7.82721        0.38444
