99

C          2.39958      -10.35684        1.92428
O          2.13069      -11.51162        2.19241
N          3.37748      -10.12826        0.94212
C          4.29048      -11.06917        0.52271
N          5.21475      -10.55791       -0.27847
C          4.83138       -9.26488       -0.45450
C          3.64076       -9.00882        0.17940
N          1.67313       -9.33885        2.58063
C          0.38789       -9.60813        3.06150
C         -0.08828       -8.45992        3.60640
N          0.86114       -7.48406        3.54589
C          1.95692       -8.02420        3.02802
C          3.22551       -7.32483        3.18326
C          4.49588       -7.72024        2.86687
C          5.55436       -7.02560        3.58431
C          6.85284       -7.74281        3.79338
C          6.98501       -9.09611        3.35898
C          8.20748       -9.59756        2.90683
C          9.34862       -8.84831        3.08836
C          9.25670       -7.72893        3.90401
C          8.01356       -7.23962        4.36063
O          8.16314       -6.34185        5.37997
C          7.08725       -6.08413        6.26133
O          5.97853      -10.04103        3.30571
C          5.21623      -10.18176        4.51113
C          5.15617       -5.66980        3.46419
S          3.41435       -5.83348        4.01322
C          5.68441       -4.23928        3.27513
C          7.01836       -3.73313        3.42479
C          7.35094       -2.31278        3.42891
N          8.55293       -1.85355        3.82055
C          9.50275       -2.74147        4.11684
C          9.27103       -4.07474        3.95241
N          8.05059       -4.56639        3.58810
F         10.26804       -4.93516        4.19635
F         10.68078       -2.29597        4.57128
C          6.46154       -1.31900        3.05010
C          5.15731       -1.75210        2.72542
C          4.75821       -3.21399        2.84285
N          3.47375       -3.37650        2.47387
S          2.81805       -1.91264        2.12621
N          4.15014       -0.96293        2.31014
C          6.78129        0.11789        3.08134
C          6.19650        1.08753        3.85210
C          6.62402        2.44333        3.59389
C          5.83001        3.63001        4.11630
C          4.60280        3.50360        4.84584
C          4.13717        4.56887        5.65240
C          4.83972        5.75615        5.76256
C          5.89549        5.96109        4.90064
C          6.27012        4.96291        3.98380
O          7.02463        5.49012        2.97252
C          6.61810        5.13380        1.65923
O          3.79913        2.40765        5.05952
C          3.23154        1.67493        3.97555
C          7.96264        2.33054        3.10117
S          8.02381        0.83089        2.16774
C          9.15275        3.21144        3.07299
N          9.13182        4.45820        3.50189
C         10.21346        5.10283        2.99001
C         11.06554        4.19505        2.43261
N         10.44920        2.95656        2.56510
C         11.09203        1.73010        2.36220
O         10.93136        0.82848        3.17530
N         11.93930        1.50608        1.26330
C         12.55462        0.29639        0.99818
N         13.24129        0.30574       -0.12197
C         13.08468        1.56126       -0.62517
C         12.28747        2.31944        0.20041
H          4.27091      -12.09892        0.88614
H          5.44260       -8.58673       -1.03793
H          3.03261       -8.11501        0.21916
H         -0.06007      -10.58782        2.93570
H         -1.05752       -8.28967        4.06073
H          4.68090       -8.64216        2.36428
H          8.25594      -10.57197        2.42790
H         10.30636       -9.18646        2.70644
H         10.17417       -7.23208        4.20788
H          6.73024       -6.99579        6.74397
H          6.27535       -5.54618        5.77808
H          7.46997       -5.40914        7.03504
H          5.36234       -9.38243        5.24375
H          5.44879      -11.14404        4.97290
H          4.15646      -10.20496        4.23581
H          5.41351        0.81775        4.53743
H          3.22909        4.44275        6.23853
H          4.52774        6.53025        6.45670
H          6.41009        6.91932        4.89212
H          5.78994        5.77589        1.35028
H          6.33500        4.08740        1.54531
H          7.46699        5.32176        0.99800
H          2.15185        1.84216        3.89669
H          3.33107        0.62063        4.26040
H          3.70251        1.84507        3.00462
H         10.33440        6.17544        3.08209
H         12.06891        4.32288        2.05228
H         12.44034       -0.55614        1.65680
H         13.54420        1.85612       -1.56191
H         11.95219        3.33927        0.08958
