87

C         -9.22934      -14.97436        1.84625
O         -8.45338      -14.46329        1.04562
N        -10.57751      -15.07492        1.47381
C        -11.05290      -14.71597        0.22636
N        -12.34037      -14.93286        0.09018
C        -12.75267      -15.39249        1.30428
C        -11.69946      -15.44651        2.18745
N         -8.73183      -15.44249        3.07107
C         -9.22427      -16.48398        3.84404
C         -8.34004      -16.66951        4.87318
N         -7.33026      -15.77095        4.78704
C         -7.55901      -15.03664        3.71036
C         -6.67731      -13.94430        3.37076
C         -6.92855      -12.72497        2.73212
C         -5.76637      -11.92155        2.68219
C         -4.72650      -12.53080        3.33806
S         -5.01849      -14.05731        3.89484
C         -3.63380      -11.65542        3.37824
C         -3.94854      -10.50574        2.70099
C         -5.32280      -10.60507        2.20847
C         -6.01355       -9.69774        1.48707
C         -7.35562       -9.94125        1.08542
N         -8.45459      -10.14408        0.77019
C         -5.43977       -8.45476        1.10427
N         -4.97489       -7.43632        0.78864
C         -2.86432       -9.60428        2.70765
C         -1.77784      -10.11383        3.43297
S         -2.17132      -11.65748        4.13827
C         -0.46052       -9.51011        3.71876
C          0.74839      -10.23029        3.83351
C          1.99097       -9.60919        4.20520
N          3.07670      -10.40927        4.37128
C          2.98736      -11.75480        4.19183
C          1.80973      -12.32815        3.80460
N          0.71430      -11.56319        3.60043
C          1.63584      -13.73887        3.63805
N          1.50953      -14.88711        3.51975
C          4.16331      -12.53026        4.45350
N          5.07664      -13.21503        4.66683
C          2.10848       -8.20100        4.41464
C          0.89857       -7.43960        4.26584
C         -0.40070       -8.11048        3.93555
N         -1.43843       -7.25392        3.89978
S         -0.85476       -5.74296        4.17985
N          0.73009       -6.11154        4.39031
C          3.40060       -7.54433        4.80225
C          4.67589       -8.10896        4.98172
C          5.63187       -7.16897        5.41505
C          5.07906       -5.92203        5.53407
S          3.48599       -5.82734        5.14028
C          6.04771       -5.03232        6.02382
C          7.21807       -5.71959        6.22027
C          7.03677       -7.11239        5.81291
C          7.94650       -8.10535        5.79721
C          7.60598       -9.41825        5.37552
N          7.31512      -10.48631        5.02974
C          9.29591       -7.89634        6.19011
N         10.39754       -7.73102        6.51463
C          8.20579       -4.89509        6.79690
C          7.74657       -3.59220        6.99951
S          6.08562       -3.43575        6.44722
C          8.36965       -2.42472        7.59334
N          7.71324       -1.27417        7.66014
C          8.49386       -0.39820        8.34187
C          9.65409       -1.00877        8.72391
N          9.58811       -2.31672        8.26407
C         10.62464       -3.24346        8.38674
O         10.90691       -3.97689        7.44856
N         11.40380       -3.29763        9.54726
C         12.62431       -3.92862        9.64590
N         13.13943       -3.84065       10.85110
C         12.21366       -3.16264       11.58985
C         11.13259       -2.81714       10.81451
H        -10.40031      -14.30885       -0.53747
H        -13.79121      -15.63811        1.48959
H        -11.69083      -15.70059        3.23558
H        -10.09580      -17.06028        3.57785
H         -8.36551      -17.41401        5.65949
H         -7.90052      -12.43916        2.35292
H         -2.85029       -8.62840        2.23633
H          4.89488       -9.15599        4.83564
H          9.18730       -5.25013        7.06051
H          8.18857        0.62733        8.50689
H         10.52935       -0.61681        9.22285
H         13.08784       -4.41285        8.79435
H         12.36652       -2.96868       12.64454
H         10.21201       -2.31173       11.07127
