91

C         -6.45408      -16.17538        2.54504
O         -6.37480      -15.21523        3.30342
N         -6.29004      -17.46049        3.08473
C         -6.08748      -17.71697        4.42747
N         -6.04853      -19.00179        4.69885
C         -6.15207      -19.62338        3.49046
C         -6.23598      -18.69948        2.47547
N         -6.75075      -15.96213        1.19004
C         -7.54904      -16.76425        0.38715
C         -7.65660      -16.13077       -0.82084
N         -6.97966      -14.95087       -0.80025
C         -6.42772      -14.85433        0.39849
C         -5.55708      -13.74817        0.72066
C         -5.62661      -12.45886        0.18015
C         -4.61241      -11.62063        0.70741
C         -3.83616      -12.30987        1.61318
S         -4.16921      -13.92628        1.74256
C         -2.84626      -11.45517        2.13468
C         -2.92993      -10.22223        1.52918
C         -4.12367      -10.16346        0.55024
C         -3.66893       -9.86474       -0.87914
C         -5.18271       -9.16036        1.01417
C         -1.85019       -9.39525        1.92888
C         -1.00272      -10.04454        2.84404
S         -1.67529      -11.58957        3.29115
C          0.30010       -9.60726        3.41056
C          1.38703      -10.47717        3.71507
C          2.67877       -9.98600        4.13545
N          3.66304      -10.84904        4.48120
C          3.42725      -12.17076        4.36982
C          2.22840      -12.64433        3.91240
N          1.22015      -11.81145        3.58133
F          2.01764      -13.96308        3.79313
F          4.40465      -13.01944        4.71553
C          2.97408       -8.61087        4.16971
C          1.89012       -7.70633        3.98675
C          0.52553       -8.21483        3.61090
N         -0.36947       -7.21806        3.47803
S          0.41133       -5.79643        3.78030
N          1.93254       -6.36347        4.07133
C          4.34324       -8.05725        4.15982
C          4.86438       -6.90250        4.74752
C          6.10328       -6.54473        4.15570
C          6.51627       -7.48867        3.23904
S          5.49673       -8.77860        3.05803
C          7.63498       -7.00213        2.52776
C          7.93014       -5.72917        2.96459
C          7.01765       -5.30587        4.12943
C          6.22890       -4.03588        3.79909
C          7.81496       -5.15085        5.42297
C          8.93220       -5.13008        2.16487
C          9.31339       -5.96626        1.11887
S          8.54777       -7.53032        1.24846
C         10.18991       -5.72437       -0.00053
N         11.00187       -6.66635       -0.45591
C         11.53333       -6.20486       -1.61958
C         11.04135       -4.96165       -1.90266
N         10.17452       -4.63238       -0.86942
C          9.50038       -3.41240       -0.73995
O          9.31857       -2.91094        0.36544
N          9.11099       -2.68609       -1.87004
C          8.78799       -3.16207       -3.12151
N          8.52450       -2.19573       -3.97143
C          8.60704       -1.04218       -3.24255
C          8.91531       -1.31982       -1.93378
H         -5.98912      -16.91825        5.15343
H         -6.13691      -20.70344        3.40853
H         -6.26416      -18.84187        1.40617
H         -8.02077      -17.66615        0.74872
H         -8.20989      -16.45300       -1.69447
H         -6.37548      -12.16249       -0.54495
H         -3.23603       -8.86088       -0.95433
H         -4.50904       -9.92230       -1.58065
H         -2.90690      -10.57606       -1.21983
H         -5.51377       -9.36374        2.03968
H         -6.06978       -9.19658        0.37118
H         -4.79361       -8.13571        0.99358
H         -1.66523       -8.40468        1.53205
H          4.30951       -6.27731        5.43702
H          5.64332       -4.14932        2.87830
H          6.89705       -3.17880        3.65820
H          5.52684       -3.78730        4.60331
H          8.40062       -6.05067        5.64699
H          7.15419       -4.96625        6.27707
H          8.51942       -4.31409        5.35028
H          9.30069       -4.12434        2.31432
H         12.24758       -6.79179       -2.18708
H         11.27118       -4.27779       -2.70982
H          8.73832       -4.21828       -3.35655
H          8.43416       -0.07378       -3.69571
H          9.06330       -0.68583       -1.06982
