81

C          8.28984       -2.05181        0.65861
O          8.23846       -3.23345        0.31843
N          9.53195       -1.40911        0.75326
C          9.83131       -0.19327        1.33802
N         11.07548        0.17286        1.12604
C         11.64363       -0.86653        0.44454
C         10.72959       -1.87125        0.24474
N          7.10627       -1.31081        0.78451
C          6.94940       -0.04886        0.22436
C          5.66348        0.33660        0.47076
N          4.99744       -0.65093        1.12820
C          5.83000       -1.67729        1.24331
C          5.53705       -2.96720        1.73750
C          4.38528       -3.64371        1.70700
C          4.50047       -4.98851        2.21251
N          5.82477       -5.13540        2.51172
C          6.46968       -3.90136        2.42579
O          7.57792       -3.60399        2.84770
C          6.59050       -6.31294        2.77768
C          3.34182       -5.67067        2.20429
C          2.38310       -4.63831        1.59626
O          1.17440       -4.81080        1.41342
N          3.10639       -3.49584        1.27685
C          2.54308       -2.35315        0.59990
C          2.89183       -7.02487        2.60047
C          1.79602       -7.68048        1.97644
C          1.29700       -8.97421        2.31441
C          1.84667       -9.78244        3.32348
C          2.95383       -9.20634        4.00779
C          3.46868       -7.79017        3.65871
N          4.45914       -7.41443        4.48318
S          4.79463       -8.68639        5.48707
N          3.66595       -9.78732        4.98953
C          1.47942      -11.18139        3.53685
C          0.56257      -11.85208        4.25447
C          0.61185      -13.26837        4.03310
N          1.51496      -13.48751        3.04912
C          2.15324      -12.28920        2.73299
O          3.05636      -12.11736        1.93775
C          1.76355      -14.72539        2.36212
C         -0.27224      -13.94953        4.75613
C         -1.02419      -12.88551        5.49833
O         -1.94088      -13.08864        6.27829
N         -0.48521      -11.64780        5.10215
C         -1.13487      -10.41138        5.43940
C         -0.70058      -15.28229        4.61915
N         -1.73287      -15.68157        3.89379
C         -1.93916      -16.98708        4.19541
C         -0.98708      -17.42377        5.07259
N         -0.12432      -16.36327        5.30572
C          1.01956      -16.36423        6.13018
O          1.61159      -15.31597        6.34760
N          1.49373      -17.53536        6.75101
C          2.17653      -17.55723        7.95079
N          2.49207      -18.77517        8.33338
C          2.05890      -19.58976        7.33059
C          1.45103      -18.85463        6.34085
H          9.10947        0.38841        1.89706
H         12.67969       -0.83663        0.13113
H         10.79597       -2.82941       -0.25229
H          7.73697        0.42563       -0.34673
H          5.17914        1.25632        0.16919
H          6.16690       -7.18024        2.26724
H          6.67502       -6.45203        3.85524
H          7.61008       -6.16685        2.39721
H          1.67103       -2.66160        0.01370
H          3.26725       -1.92412       -0.09603
H          2.22261       -1.60774        1.33373
H          1.28177       -7.17504        1.15455
H          0.46974       -9.36107        1.71788
H          0.85122      -15.32468        2.29688
H          2.54031      -15.27996        2.89405
H          2.10706      -14.51565        1.34500
H         -2.21036      -10.59427        5.55963
H         -1.00210       -9.67196        4.64735
H         -0.74437      -10.04314        6.38986
H         -2.77516      -17.54482        3.79078
H         -0.89670      -18.38524        5.55087
H          2.37365      -16.65368        8.51420
H          2.22532      -20.66047        7.35748
H          1.05439      -19.16960        5.38721
