86

C          5.60150        3.95208       -1.35875
O          6.32053        4.76904       -0.43276
C          5.51545        5.63552        0.27701
C          5.37735        6.97586       -0.20482
C          5.98040        7.51870       -1.47568
C          5.92128        6.83497       -2.70046
C          6.54305        7.30597       -3.86124
C          7.16445        8.55325       -3.85166
N          7.78990        8.96160       -5.09050
O          8.97073        8.62823       -5.26821
O          7.06434        9.50763       -5.92699
C          7.15962        9.35674       -2.70624
C          7.61439       10.79390       -2.65555
O          8.31600       11.20531       -3.81132
C          6.59324        8.79822       -1.52365
C          4.62805        7.85244        0.60779
C          4.09810        7.46646        1.85270
C          4.26840        6.16939        2.35528
C          3.65634        5.81488        3.68220
C          2.44189        6.21572        4.21895
C          2.11166        5.52806        5.43487
C          3.07128        4.59920        5.81604
C          2.97019        3.63291        6.94015
O          2.20475        3.84242        7.87867
C          3.73014        2.36473        6.86520
C          4.06775        1.77847        5.65333
O          4.83271        0.68299        5.81979
C          4.93846        0.49072        7.14895
C          4.19169        1.39729        7.88166
C          4.10912        1.29040        9.37061
C          3.82456        2.41972       10.12995
C          3.78257        2.37973       11.54056
C          4.05582        1.22739       12.32186
C          3.86290        1.29143       13.82863
C          3.09144        2.32023       14.42096
C          2.73893        2.32529       15.77406
C          3.09749        1.24767       16.58274
N          2.59873        1.23983       17.95312
O          1.40070        1.47355       18.11872
O          3.42841        1.05201       18.85791
C          3.88238        0.20775       16.08168
C          4.12782       -1.07250       16.83403
O          2.95092       -1.85882       16.70127
C          4.31240        0.31026       14.73261
C          4.42127        0.08516       11.56076
O          5.15378       -0.94124       12.13017
C          4.42314       -2.03791       12.67665
C          4.37164        0.10184       10.11918
O          4.70510       -1.05192        9.43587
C          3.76461       -2.11209        9.60548
S          4.48493        4.85568        4.86427
C          4.96882        5.23234        1.53872
O          4.98172        3.97666        2.08717
C          5.79121        2.91891        1.62518
H          4.56787        4.27593       -1.52044
H          5.60841        2.91107       -1.03920
H          6.14533        3.96572       -2.30930
H          5.36013        5.91531       -2.79330
H          6.51939        6.70640       -4.76881
H          8.27131       10.95434       -1.79392
H          6.73073       11.43404       -2.55489
H          8.34751       12.17719       -3.81288
H          6.62289        9.39863       -0.61423
H          4.44741        8.87539        0.28111
H          3.55229        8.21184        2.42850
H          1.77459        6.91533        3.72983
H          1.17399        5.65753        5.96529
H          3.87526        2.03428        4.61888
H          5.57103       -0.35226        7.41469
H          3.63929        3.38188        9.66351
H          3.55646        3.33146       12.01577
H          2.70020        3.14625       13.83463
H          2.14303        3.14432       16.17084
H          4.34276       -0.92016       17.89263
H          4.96771       -1.63208       16.40940
H          3.05783       -2.64020       17.27087
H          5.00945       -0.44606       14.39703
H          3.38790       -1.79098       12.92567
H          4.94474       -2.36753       13.58514
H          4.46286       -2.89634       12.00984
H          3.31603       -2.36014        8.63965
H          2.95849       -1.89511       10.31587
H          4.31662       -2.99771        9.93474
H          5.24664        2.35952        0.86363
H          5.93306        2.22638        2.46092
H          6.78397        3.23218        1.29890
