91

C          0.90749       -0.90444        3.65786
O          1.57118       -0.41584        2.76910
C          0.48845       -0.32386        4.89525
C          0.89509        0.75822        5.61014
F          1.82223        1.59252        5.22374
S          0.10005        0.84438        7.11242
C         -0.81247       -0.59296        6.78988
C         -0.52365       -1.08630        5.53985
C         -0.93101       -2.24498        4.73768
N         -1.96909       -3.00246        4.78657
N         -3.14797       -2.68689        5.44971
O         -3.92816       -3.60850        5.71646
O         -3.31616       -1.51273        5.79295
C         -2.17088       -3.98530        3.87672
O         -1.48521       -5.02403        4.03873
O         -2.94214       -3.68023        2.92783
C          0.27159       -2.27536        3.75173
C          0.90994       -3.36923        3.29650
C          2.18066       -3.34648        2.64628
C          2.48014       -3.25499        1.28654
C          3.86136       -3.45071        1.04956
C          4.55802       -3.63315        2.22334
S          3.62421       -3.59257        3.59822
C          5.91337       -3.88845        1.91542
C          6.06921       -3.89909        0.54991
C          4.78916       -3.56705       -0.07998
C          4.53128       -3.37896       -1.39001
C          3.23039       -3.03216       -1.84984
N          2.17125       -2.75260       -2.22372
C          5.54628       -3.49101       -2.37705
N          6.37043       -3.58369       -3.19036
C          7.38393       -4.26709        0.18062
C          8.20670       -4.48605        1.29672
S          7.30772       -4.16024        2.76715
C          9.64245       -4.89634        1.35678
C         10.22918       -5.67012        2.38934
C         11.63595       -5.99787        2.41862
N         12.13154       -6.64802        3.49688
C         11.30528       -7.04315        4.48104
C          9.96835       -6.78760        4.42230
N          9.43330       -6.11459        3.38839
C         12.52724       -5.66164        1.36600
C         11.97360       -4.89766        0.30117
C         10.51880       -4.49371        0.30577
N         10.20312       -3.73471       -0.75992
S         11.55019       -3.59087       -1.69986
N         12.62029       -4.45780       -0.79388
C         13.96965       -6.03554        1.31451
C         15.06644       -5.36557        0.74547
C         16.28467       -6.02839        1.01698
C         16.07923       -7.16291        1.76230
S         14.49531       -7.55225        2.01573
C         17.32177       -7.68190        2.17068
C         18.32026       -6.87710        1.67717
C         17.72535       -5.84376        0.82516
C         18.35565       -5.00112       -0.01373
C         17.64021       -4.10589       -0.85123
N         17.06206       -3.37465       -1.54439
C         19.77290       -5.00591       -0.13794
N         20.93309       -5.04092       -0.19181
C         19.57321       -7.22312        2.22669
C         19.47182       -8.34216        3.06044
S         17.82362       -8.89805        3.17658
C         20.43797       -8.98645        3.88058
C         21.72252       -9.17586        3.55622
C         22.64936       -9.46996        4.71157
O         22.37428       -9.82396        5.83983
C         23.91809       -9.09332        4.16748
C         25.17123       -9.00236        4.68547
S         26.29145       -8.48189        3.51459
C         25.07563       -8.39869        2.28420
C         23.84350       -8.72751        2.79494
C         22.49411       -8.89647        2.26250
N         22.07991       -8.96389        1.04495
N         22.51996       -8.05601        0.08965
O         22.39481       -8.29800       -1.11157
O         23.09128       -7.05193        0.53787
C         21.15631       -9.90855        0.69340
O         21.14072      -10.92918        1.44248
O         20.38946       -9.68391       -0.27789
F         25.47849       -9.27618        5.92481
H         -1.48725       -0.95961        7.55387
H          0.56463       -4.37138        3.52500
H          1.71277       -3.11049        0.53537
H          7.73605       -4.38995       -0.83681
H         11.75860       -7.57628        5.30793
H          9.28355       -7.10004        5.20106
H         14.97439       -4.42355        0.21838
H         20.48868       -6.65972        2.08919
H         20.10095       -9.26474        4.88533
H         25.36638       -8.10495        1.28382
