93

C         20.05896       -3.28136        5.69975
O         19.53830       -4.37448        5.62637
C         20.79755       -2.75496        6.80664
C         20.92558       -3.11279        8.11396
F         20.32140       -4.12958        8.66678
S         21.94930       -2.04534        8.95906
C         22.22282       -1.08642        7.54585
C         21.55942       -1.61835        6.46453
C         21.38267       -1.22529        5.06856
N         21.96946       -0.26611        4.44408
N         23.32924       -0.02302        4.61669
O         23.78587        1.09378        4.36464
O         23.99128       -0.95047        5.10559
C         21.32317        0.48214        3.51669
O         21.94840        0.78838        2.47015
O         20.10485        0.69532        3.77077
C         20.27910       -2.22925        4.60923
C         19.65117       -2.23157        3.41359
C         18.50851       -3.01850        3.03394
C         18.18338       -3.51382        1.75845
C         16.90462       -4.12820        1.73229
C         16.30813       -4.06770        2.96841
S         17.16309       -3.25144        4.12747
C         15.03064       -4.65582        2.89636
C         14.79936       -5.08696        1.61303
C         15.97456       -4.77175        0.79116
C         16.13884       -4.98884       -0.53000
C         17.32840       -4.60150       -1.20426
N         18.30198       -4.28505       -1.75126
C         15.13287       -5.61178       -1.31726
N         14.31063       -6.11819       -1.96491
C         13.50172       -5.64358        1.48487
C         12.79918       -5.61537        2.69813
S         13.77070       -4.86305        3.94653
C         11.39796       -5.98418        3.02224
C         10.97205       -6.49175        4.27921
C          9.58614       -6.54643        4.65447
N          9.22540       -7.00008        5.87949
C         10.18913       -7.37289        6.75681
C         11.51200       -7.32087        6.40879
N         11.89998       -6.90506        5.17461
C         12.56634       -7.68475        7.30732
N         13.39978       -7.98272        8.05556
C          9.73295       -7.81183        8.04205
N          9.38239       -8.17449        9.08613
C          8.56953       -6.08836        3.79828
C          8.92970       -5.76489        2.46298
C         10.37700       -5.70681        2.06567
N         10.53542       -5.32326        0.78657
S          9.03104       -5.10586        0.13667
N          8.09857       -5.42385        1.46247
C          7.25916       -5.61973        4.27362
C          5.97636       -5.72165        3.72689
C          5.10552       -4.77613        4.32174
C          5.74353       -4.06446        5.31173
S          7.29920       -4.50866        5.62260
C          4.91046       -3.02959        5.75960
C          3.72415       -3.08556        5.07182
C          3.76959       -4.20505        4.12448
C          2.82497       -4.58324        3.24173
C          3.00164       -5.69830        2.37765
N          3.13502       -6.61413        1.67718
C          1.60142       -3.86429        3.13548
N          0.62691       -3.23928        3.09462
C          2.85760       -2.05029        5.48374
C          3.49315       -1.18190        6.37942
S          5.07405       -1.76249        6.81269
C          3.03255       -0.00100        7.02004
C          2.24040        0.91855        6.44684
C          1.45338        1.75917        7.41676
O          1.67555        1.98666        8.58807
C          0.29997        2.07934        6.63252
C         -0.89113        2.66238        6.92915
S         -1.90424        2.72834        5.56582
C         -0.71296        1.97701        4.55621
C          0.41277        1.65590        5.27448
C          1.72227        1.06022        5.00546
N          2.37241        0.82545        3.91869
N          1.77552        0.45416        2.72779
O          0.59833        0.08457        2.79713
O          2.40461        0.54924        1.67054
C          3.73287        0.90002        3.91420
O          4.20306        1.87937        4.55887
O          4.36563       -0.03876        3.36212
F         -1.22380        3.09787        8.11435
H         22.84809       -0.20556        7.62375
H         19.94527       -1.52818        2.63872
H         18.84422       -3.39248        0.90732
H         13.06230       -6.01559        0.56662
H          5.75500       -6.33873        2.86323
H          1.84047       -1.91214        5.14327
H          3.27077        0.09110        8.08219
H         -0.95808        1.81759        3.51467
