72

C         -1.53155        1.01747        2.15585
C         -2.77093        0.42407        2.33778
C         -3.06982       -0.92798        1.92895
N         -4.32508       -1.39265        2.14778
C         -5.24195       -0.58010        2.75258
C         -4.92821        0.70176        3.13356
N         -3.68999        1.21489        2.91875
C         -5.86819        1.58200        3.76533
N         -6.64045        2.28701        4.28078
C         -6.53540       -1.15492        2.96749
N         -7.58759       -1.59977        3.16025
C         -2.09025       -1.75308        1.30801
C         -0.78387       -1.18010        1.15323
C         -0.52336        0.23624        1.56821
N          0.72485        0.65709        1.31998
S          1.52836       -0.62151        0.64135
N          0.33093       -1.75864        0.67089
C         -2.36726       -3.13168        0.81523
C         -3.24630       -4.09400        1.32606
C         -3.23380       -5.27845        0.53238
C         -2.35394       -5.15993       -0.49932
S         -1.59551       -3.67383       -0.66401
C         -2.22092       -6.25107       -1.32709
C         -3.04118       -7.30751       -1.07401
S         -3.92594       -6.85383        0.34457
C         -2.87510       -8.32822       -2.05869
C         -1.87149       -7.99023       -2.97123
S         -1.19918       -6.39816       -2.65167
C         -1.37329       -8.76415       -4.11578
C         -2.03569       -9.64199       -4.98876
C         -3.44548       -9.98332       -4.84712
O         -3.86689      -11.13018       -4.82752
O         -4.28479       -8.92186       -4.74854
C         -1.13985      -10.16894       -6.01968
C          0.14789       -9.71045       -5.82992
S          0.30587       -8.67381       -4.50362
C         -1.45020      -11.08750       -7.20885
C         -2.70768      -11.54346       -7.59060
C         -2.61814      -12.42145       -8.70633
C         -1.33571      -12.51773       -9.15048
S         -0.18450      -11.65047       -8.28742
C         -1.13640      -13.30203      -10.26287
C         -2.23210      -13.94125      -10.75601
S         -3.54561      -13.43075       -9.75866
C         -1.88612      -14.75809      -11.86509
C         -0.52069      -14.66801      -12.15753
S          0.30045      -13.54009      -11.09629
C          0.24503      -15.35295      -13.23491
C          1.61616      -15.73560      -13.14880
C          2.29278      -16.39306      -14.23781
N          3.58897      -16.73954      -14.16535
C          4.26541      -16.44547      -13.02445
C          3.64586      -15.82494      -11.96914
N          2.33025      -15.49092      -12.02464
C          4.32963      -15.47414      -10.76013
N          4.90866      -15.19438       -9.79324
C          5.64430      -16.83135      -12.99528
N          6.76218      -17.14113      -12.94993
C          1.66604      -16.71874      -15.42909
C          0.31100      -16.37017      -15.56469
C         -0.42342      -15.67005      -14.45994
N         -1.69918      -15.40952      -14.80077
S         -1.94607      -16.00434      -16.32537
N         -0.44039      -16.61339      -16.64743
H         -1.33672        2.03904        2.45905
H         -3.86594       -3.95996        2.20389
H         -3.45840       -9.24101       -2.07556
H         -3.82370       -8.06443       -4.81282
H          1.03397       -9.92240       -6.41332
H         -3.65183      -11.30652       -7.12664
H         -2.60051      -15.36631      -12.40594
H          2.19464      -17.22151      -16.23162
