72

N          1.36463       -0.42278        2.20578
C          2.37837       -0.60913        1.67549
C          3.64361       -0.84783        1.03433
N          3.76592       -0.36552       -0.22708
C          4.93796       -0.54674       -0.85582
C          4.98622       -0.02639       -2.13735
C          6.19436       -0.16983       -2.84336
N          6.41310        0.27528       -4.08912
S          7.97550       -0.13405       -4.46323
N          8.43044       -0.89604       -3.06352
C          7.37618       -0.86328       -2.22902
C          7.29004       -1.40066       -0.90875
C          8.48788       -2.09604       -0.35855
C          8.63444       -3.42075       -0.60200
C          9.79249       -4.21125       -0.15193
C         10.82864       -3.69816        0.55735
C         11.92086       -4.60336        0.99316
C         13.11341       -4.86714        0.30562
N         14.15404       -5.71075        0.67282
C         14.12489       -6.42156        1.85319
C         15.24088       -7.33732        2.21355
C         15.18750       -8.62936        1.80087
C         16.24333       -9.62197        2.06985
C         17.41182       -9.32487        2.69016
C         18.38631      -10.41380        2.97246
C         18.31856      -11.07265        4.23686
N         17.42391      -10.87727        5.22115
S         17.80281      -11.92308        6.44953
N         19.13815      -12.66862        5.80747
C         19.32197      -12.13368        4.59244
C         20.33964      -12.50132        3.69377
C         20.35126      -11.87243        2.45840
N         21.30371      -12.30257        1.61604
C         21.34610      -11.75216        0.37503
C         22.34511      -12.28347       -0.50813
N         23.14135      -12.71078       -1.23497
C         20.45800      -10.76616       -0.00037
C         20.47377      -10.18494       -1.30418
N         20.51389       -9.73749       -2.37596
N         19.49596      -10.30459        0.84898
C         19.40307      -10.84318        2.08388
C         17.58278       -7.92823        3.11355
C         16.46321       -6.94738        2.93995
C         16.70602       -5.73356        3.47538
Si        18.43412       -5.63217        4.20587
C         18.68739       -7.42493        3.70260
C         12.97345       -6.25066        2.67326
N         12.70900       -6.83458        3.85695
S         11.23410       -6.27155        4.35777
N         10.83371       -5.27047        3.10385
C         11.84764       -5.31334        2.22030
C         10.74970       -2.25872        0.85748
C          9.56901       -1.45273        0.40400
C          9.61647       -0.14967        0.75037
Si        11.17711        0.24563        1.72457
C         11.67277       -1.55710        1.54599
C          6.05411       -1.23055       -0.23266
N          5.88382       -1.71031        1.02065
C          4.68560       -1.51329        1.64140
C          4.57830       -2.04084        2.96565
N          4.44938       -2.45358        4.04268
H          4.13294        0.47387       -2.58317
H          7.88592       -3.97074       -1.16551
H          9.76172       -5.26610       -0.41220
H         13.29432       -4.37170       -0.65010
H         14.33401       -8.99805        1.23823
H         16.02312      -10.63762        1.75313
H         21.06545      -13.26580        3.95195
H         16.04704       -4.87977        3.48624
H         19.61161       -7.93724        3.92007
H          8.89221        0.61962        0.53392
H         12.58989       -1.92769        1.97725
