111

C          4.39323        0.28093       -3.29489
C          4.00009        1.44096       -4.18011
O          2.89190        1.91516       -4.30656
C          5.28706        1.93112       -4.77434
C          6.33522        1.11659       -4.30187
C          5.72568       -0.10363       -3.73480
C          6.14721       -1.35815       -4.02313
C          5.26345       -2.47834       -3.95467
N          4.55259       -3.39228       -4.00127
C          7.42399       -1.61065       -4.60219
N          8.47584       -1.78766       -5.06078
C          7.65361        1.50007       -4.45902
C          7.92124        2.63793       -5.22018
C          6.88837        3.35407       -5.86111
C          5.52870        3.01297       -5.63284
C          4.52705        3.73096       -6.31912
C          4.86527        4.72660       -7.23941
C          6.19983        5.05656       -7.45396
C          7.20278        4.38983       -6.75228
C          3.70798       -0.06917       -2.19275
C          4.16472       -0.94080       -1.12414
C          3.64306       -2.11680       -0.71477
C          4.29107       -2.76155        0.45517
O          3.82337       -3.96913        0.92726
C          2.45681       -4.18722        0.55529
C          2.30030       -4.02723       -0.94621
O          2.53927       -2.67130       -1.32176
C          5.33246       -2.10192        1.01642
Si         5.53731       -0.43597        0.12064
C          7.15203       -0.10624       -0.69891
C          5.00032        1.01788        1.14409
C          6.17645       -2.48610        2.16878
C          7.37011       -3.24226        2.08153
C          8.21409       -3.51552        3.23694
N          9.34843       -4.23312        3.11889
C          9.64725       -4.71863        1.89959
C          8.84792       -4.47833        0.80260
N          7.72688       -3.71966        0.87092
F          9.16516       -5.01365       -0.38501
F         10.75981       -5.45697        1.77460
C          7.89568       -3.06472        4.52977
C          6.64617       -2.40039        4.67944
C          5.77386       -2.10117        3.47995
N          4.64614       -1.44956        3.81672
S          4.64469       -1.28704        5.46352
N          6.10347       -1.97145        5.83312
C          8.77073       -3.17258        5.70550
C          9.62811       -2.23485        6.16669
C         10.15663       -2.45769        7.52660
O         10.88845       -1.47680        8.15732
C         11.05093       -0.26027        7.42974
C         11.18249       -0.53351        5.94502
O          9.94665       -1.08533        5.47553
C          9.83773       -3.63170        8.12331
Si         8.80652       -4.66449        6.86330
C          7.19825       -5.36185        7.37882
C          9.92182       -6.00548        6.18321
C         10.07199       -4.07869        9.48926
C         11.13443       -3.79186       10.26461
C         11.12549       -3.99124       11.76338
O         10.39709       -4.73465       12.38883
C         12.13325       -3.02542       12.30290
C         12.67326       -2.29559       11.22602
C         12.33081       -3.01606        9.98465
C         13.19408       -3.18629        8.94767
C         13.02706       -4.22775        7.99682
N         12.97281       -5.10429        7.23900
C         14.37193       -2.41276        8.79607
N         15.32401       -1.76250        8.66324
C         13.44527       -1.16919       11.45626
C         13.83227       -0.88902       12.76499
C         13.47230       -1.73804       13.83000
C         12.57137       -2.81631       13.61844
C         12.24141       -3.64406       14.71002
C         12.84341       -3.45325       15.95684
C         13.74516       -2.41079       16.14732
C         14.03645       -1.54221       15.09748
H          8.47674        0.93930       -4.02592
H          8.96023        2.93538       -5.36105
H          3.47499        3.48444       -6.18455
H          4.08492        5.23431       -7.80130
H          6.46349        5.82413       -8.17771
H          8.24020        4.66200       -6.93941
H          2.72587        0.37816       -2.02602
H          2.18208       -5.20115        0.86130
H          1.82118       -3.47979        1.10412
H          1.27829       -4.27588       -1.25073
H          2.99154       -4.67437       -1.49805
H          7.47639       -0.94641       -1.31860
H          7.94286        0.10005        0.02662
H          7.07518        0.77674       -1.34149
H          4.26651        0.72864        1.90177
H          4.54216        1.78964        0.51758
H          5.85425        1.46966        1.65780
H         11.95200        0.23136        7.81203
H         10.18898        0.37929        7.64504
H         11.37180        0.39677        5.40137
H         12.00657       -1.22799        5.72807
H          6.46808       -4.59038        7.63630
H          7.30447       -6.02457        8.24335
H          6.76644       -5.96202        6.56972
H         10.82459       -5.57186        5.74448
H          9.41886       -6.58180        5.40267
H         10.22514       -6.69465        6.97788
H          9.23961       -4.61210        9.95274
H         13.78538       -0.52459       10.65222
H         14.47839       -0.02971       12.94118
H         11.55520       -4.47968       14.58758
H         12.62239       -4.13444       16.77482
H         14.23224       -2.27833       17.11026
H         14.74715       -0.73527       15.26736
