87

C          2.21135       -1.11529        3.47310
C          1.15493       -1.80867        4.28029
O          0.91612       -1.63058        5.45733
C          0.43678       -2.69448        3.33516
C          1.08527       -2.66502        2.08007
C          2.30369       -1.80546        2.17856
C          3.37309       -1.84764        1.34280
C          4.64814       -1.31381        1.70051
N          5.70400       -0.91696        1.96716
C          3.34192       -2.46641        0.05983
N          3.30816       -2.93252       -1.00215
C          0.56667       -3.42678        1.04580
C         -0.55600       -4.22877        1.28168
C         -1.20054       -4.25764        2.53275
C         -0.71874       -3.45760        3.59426
C         -1.42083       -3.47707        4.82107
C         -2.54820       -4.28118        4.99575
C         -2.99294       -5.08732        3.95557
C         -2.32454       -5.07397        2.73205
C          2.63460        0.06092        3.96663
C          3.30261        1.07538        3.22269
C          3.12018        1.45980        1.89403
C          3.96629        2.54656        1.56062
C          4.68896        2.94550        2.64332
S          4.46245        2.07348        4.06408
C          5.50421        4.03407        2.45422
C          5.53444        4.55740        1.19522
S          4.42466        3.60568        0.27748
C          6.44512        5.64464        1.12170
C          7.04286        5.86224        2.36205
S          6.46702        4.78676        3.60525
C          8.03738        6.85791        2.69080
C          9.02792        6.79090        3.64474
F          9.23962        5.75688        4.41522
C          9.81341        7.95054        3.71777
F         10.79318        8.07676        4.57305
C          9.44019        8.92366        2.81784
S          8.10635        8.37355        1.87793
C         10.03218       10.22467        2.60352
C          9.38842       11.38321        2.17207
C         10.31542       12.45421        2.06288
C         11.57411       12.04088        2.38854
S         11.73934       10.44092        2.87043
C         12.57391       12.97677        2.27754
C         12.18271       14.22506        1.90087
S         10.47643       14.12428        1.65378
C         13.28927       15.11148        1.87557
C         14.47319       14.44702        2.20637
S         14.21617       12.75933        2.57790
C         15.80441       14.95703        2.32647
C         16.29397       15.95387        1.57585
C         17.53852       16.67898        2.00617
O         18.38463       16.26588        2.77084
C         17.45022       18.02628        1.37300
C         16.26816       18.09266        0.60588
C         15.73610       16.71987        0.46475
C         15.19130       16.21923       -0.67049
C         15.10727       14.81601       -0.90858
N         15.06795       13.67890       -1.13504
C         14.78833       17.03887       -1.75873
N         14.44346       17.72730       -2.63354
C         15.83829       19.30118        0.08973
C         16.67294       20.41140        0.22287
C         17.93230       20.31785        0.85163
C         18.33536       19.10804        1.47196
C         19.60045       19.05187        2.09318
C         20.46451       20.14726        2.05359
C         20.06969       21.32415        1.42648
C         18.80467       21.41498        0.84727
H          0.99085       -3.45043        0.04900
H         -0.93193       -4.84255        0.46281
H         -1.10116       -2.86016        5.65865
H         -3.07376       -4.27718        5.94749
H         -3.86346       -5.72357        4.09317
H         -2.69351       -5.71017        1.92977
H          2.37253        0.32292        4.99428
H          2.42558        1.00002        1.20481
H          6.65771        6.20609        0.22071
H          8.33083       11.46039        1.94902
H         13.21004       16.16459        1.64274
H         16.41532       14.55863        3.13792
H         14.89190       19.41184       -0.43066
H         16.34972       21.35634       -0.21318
H         19.94434       18.14053        2.57923
H         21.45286       20.07377        2.50065
H         20.74906       22.17156        1.38045
H         18.51792       22.34591        0.36162
