94

C          3.32139       -6.18862       -2.00082
C          3.71847       -6.43188       -3.43630
O          4.05537       -5.59169       -4.24109
C          3.68406       -7.90189       -3.62604
C          3.15942       -8.50274       -2.46336
C          2.73273       -7.43696       -1.50270
C          1.78820       -7.59659       -0.54105
C          1.15763       -6.51963        0.14356
N          0.55533       -5.71106        0.71882
C          1.22637       -8.86697       -0.20120
N          0.77794       -9.88374        0.09822
C          3.10880       -9.88706       -2.39590
C          3.53653      -10.64548       -3.49172
C          4.04955      -10.04380       -4.65583
C          4.14422       -8.63537       -4.74069
C          4.69661       -8.07287       -5.91511
C          5.13857       -8.88059       -6.96559
C          5.03019      -10.26212       -6.87291
C          4.48607      -10.83984       -5.72702
C          3.78003       -5.04027       -1.47654
C          3.83369       -4.69346       -0.10128
C          2.97794       -3.84603        0.59756
C          3.51282       -3.52691        1.87167
C          4.66309       -4.21965        2.10167
S          5.20717       -5.20550        0.84666
C          5.23732       -4.03381        3.33802
C          4.63780       -3.12389        4.15746
S          3.25794       -2.56606        3.28350
C          5.35231       -2.98844        5.37830
C          6.40849       -3.90337        5.43952
S          6.58626       -4.81682        3.95419
C          7.37612       -4.11852        6.61981
C          8.40978       -5.20566        6.37756
N          9.48048       -4.98639        5.60336
S         10.29395       -6.44798        5.56050
N          9.34294       -7.34983        6.60384
C          8.33903       -6.53514        6.95090
C          7.26347       -6.98063        7.91802
C          6.59351       -5.75634        8.51662
C          6.63088       -4.43910        7.90841
N          5.98461       -3.48980        8.59783
S          5.31925       -4.28197        9.91630
N          5.91033       -5.82852        9.66536
C          6.27031       -7.94066        7.25905
C          6.34111       -9.33699        7.21826
C          5.18233       -9.87894        6.59333
C          4.37274       -8.88061        6.14566
S          4.86997       -7.30452        6.43679
C          3.22215       -9.26799        5.51058
C          2.94932      -10.60015        5.49351
S          4.35941      -11.34297        6.16930
C          1.64335      -10.83298        4.96954
C          1.00629       -9.62520        4.66299
S          2.12114       -8.26823        4.74284
C         -0.33320       -9.41485        4.19108
C         -1.06890       -8.31729        4.44721
C         -2.20724       -7.97804        3.52215
O         -2.86094       -8.76122        2.86886
C         -2.28581       -6.48826        3.53061
C         -1.37053       -5.98297        4.48154
C         -0.82092       -7.12079        5.25417
C         -0.40173       -7.08261        6.54293
C         -0.18791       -8.26819        7.30685
N         -0.02999       -9.22471        7.94656
C         -0.16588       -5.86514        7.23808
N          0.06326       -4.86738        7.79236
C         -1.13304       -4.61946        4.55766
C         -1.89059       -3.76375        3.75943
C         -2.86648       -4.25392        2.86801
C         -3.06665       -5.64670        2.71635
C         -4.02362       -6.09492        1.77949
C         -4.77765       -5.18273        1.03526
C         -4.59134       -3.81797        1.21032
C         -3.63880       -3.35447        2.11741
H          2.76226      -10.42853       -1.52207
H          3.47350      -11.73147       -3.42358
H          4.79374       -6.99486       -6.02580
H          5.56840       -8.42566       -7.85504
H          5.37453      -10.89274       -7.68908
H          4.41463      -11.92447       -5.67374
H          4.25936       -4.31879       -2.14024
H          2.04564       -3.45603        0.20976
H          5.08916       -2.29718        6.17160
H          7.91758       -3.17387        6.77679
H          7.75867       -7.51471        8.74318
H          7.15137       -9.92399        7.63382
H          1.18074      -11.80896        4.88535
H         -0.72394      -10.16378        3.50125
H         -0.37701       -4.18952        5.20546
H         -1.71419       -2.69164        3.83653
H         -4.19992       -7.15573        1.62593
H         -5.51409       -5.54471        0.32307
H         -5.18378       -3.10701        0.64011
H         -3.50615       -2.28158        2.23590
