91

C          3.94652        2.60220       -0.12558
C          3.47281        3.92240        0.23162
O          3.64004        4.92763       -0.44136
C          2.75045        3.86263        1.47933
C          2.93783        2.61720        2.06723
C          3.70728        1.71689        1.10905
C          4.10955        0.41764        1.36953
C          5.14590       -0.30308        0.66419
N          5.96142       -0.94749        0.15101
C          3.54791       -0.41799        2.40692
N          3.15173       -1.14988        3.21305
C          2.49152        2.43617        3.39724
C          1.79229        3.48621        4.05084
C          1.47809        4.68397        3.36486
C          1.96580        4.87226        2.05362
C          1.61240        6.03289        1.33631
C          0.77382        6.98508        1.89610
C          0.31239        6.82591        3.19945
C          0.67433        5.69179        3.94516
C          4.32151        2.43832       -1.42997
C          4.53673        1.18561       -2.14050
C          3.85776        0.01566       -1.83805
C          4.39791       -1.04194       -2.52410
C          5.37731       -0.69780       -3.40107
S          5.65366        0.95601       -3.41665
C          5.96494       -1.79223       -3.96909
C          5.46195       -2.96817       -3.49770
S          4.18413       -2.72237       -2.40146
C          6.13593       -4.09536       -3.93771
C          7.18826       -3.74102       -4.80928
S          7.24778       -2.04143       -4.99763
C          8.16958       -4.66716       -5.42863
C          8.09584       -6.04768       -5.15891
C          8.99584       -6.95489       -5.74913
C         10.03744       -6.50884       -6.58659
C         10.10035       -5.11345       -6.84075
C          9.18326       -4.22824       -6.29302
N          9.37993       -2.94122       -6.62790
Se        10.77780       -2.74605       -7.72960
N         11.01281       -4.52313       -7.63208
C         11.04206       -7.49257       -7.12840
C         12.37974       -7.18397       -7.43226
C         13.09105       -8.29800       -7.87577
C         12.37488       -9.45948       -7.98529
S         10.79460       -9.17348       -7.44871
C         13.11383      -10.46401       -8.62660
C         14.37938      -10.06358       -8.94525
S         14.69267       -8.48309       -8.41619
C         15.08627      -10.88921       -9.81541
C         14.24646      -11.92726      -10.28884
S         12.80282      -11.95523       -9.34149
C         14.32834      -12.68480      -11.61257
C         14.79865      -12.24905      -12.84703
C         14.83762      -13.05577      -14.07367
O         14.33502      -14.16032      -14.19538
C         15.73508      -12.41261      -15.05103
C         16.24738      -11.23447      -14.48806
C         15.41211      -10.95455      -13.24903
C         14.96411       -9.73723      -12.82397
C         13.60284       -9.65805      -12.33629
N         12.51331       -9.60089      -11.94672
C         15.55839       -8.44212      -13.01327
N         15.95123       -7.35887      -13.12254
C         17.24991      -10.52666      -15.18523
C         17.73607      -11.03992      -16.41953
C         17.13648      -12.16809      -17.02777
C         16.09169      -12.84865      -16.35278
C         15.42773      -13.90795      -17.01163
C         15.79928      -14.29268      -18.30413
C         16.86863      -13.66646      -18.94170
C         17.54434      -12.61492      -18.30829
H          2.68269        1.52392        3.94338
H          1.45762        3.35211        5.07426
H          1.91822        6.20221        0.31909
H          0.47725        7.84189        1.30230
H         -0.34176        7.58103        3.61640
H          0.29043        5.59445        4.95240
H          4.40336        3.32464       -2.05885
H          3.08572       -0.05179       -1.09391
H          5.91123       -5.09001       -3.58038
H          7.32509       -6.43452       -4.50319
H          8.89469       -8.00482       -5.51411
H         12.82639       -6.20709       -7.33899
H         16.05832      -10.60484      -10.18750
H         13.91850      -13.68579      -11.60236
H         17.67348       -9.61285      -14.79382
H         18.54105      -10.52798      -16.93866
H         14.58750      -14.41492      -16.56439
H         15.25440      -15.08034      -18.81435
H         17.15691      -13.98704      -19.93833
H         18.36150      -12.13946      -18.83916
