89

C          4.90505        0.37976        1.94657
C          4.22186        0.68338        3.24239
O          3.28490        1.43648        3.40307
C          4.87919       -0.20172        4.24114
C          5.99163       -0.83777        3.64083
C          6.16670       -0.28842        2.27306
C          7.32480       -0.21183        1.56830
C          7.45825        0.64024        0.42864
N          7.59728        1.35460       -0.47194
C          8.50372       -0.91048        1.94787
N          9.45035       -1.51630        2.24332
C          6.68502       -1.80578        4.34662
C          6.29209       -2.09305        5.65809
C          5.20360       -1.43777        6.27176
C          4.45800       -0.47284        5.55328
C          3.35128        0.13620        6.18454
C          3.00536       -0.18565        7.49702
C          3.75301       -1.12133        8.20175
C          4.84150       -1.74542        7.59208
C          4.15405        0.43841        0.83335
C          4.45873       -0.28491       -0.35775
C          5.02229       -1.54260       -0.48204
C          5.26380       -1.87646       -1.84182
C          4.74522       -0.97657       -2.71619
S          4.00633        0.36861       -1.88924
C          4.93713       -1.35743       -4.07898
C          5.71237       -2.50308       -4.19825
S          6.08312       -3.16981       -2.64406
C          6.27206       -3.13733       -5.42472
C          6.51029       -4.52467       -5.58884
C          7.17466       -5.07273       -6.75268
N          7.39643       -6.40604       -6.82360
C          7.00737       -7.19177       -5.80069
C          6.35507       -6.67655       -4.71334
N          6.09195       -5.36041       -4.61254
F          5.95500       -7.47619       -3.71547
F          7.26791       -8.50390       -5.87718
C          7.59636       -4.26303       -7.83352
C          7.29888       -2.87041       -7.74166
C          6.64197       -2.29788       -6.51672
N          6.48981       -0.96343       -6.60166
S          7.05954       -0.47593       -8.06838
N          7.55970       -1.92643       -8.66506
C          8.35565       -4.73378       -9.02181
C          8.30090       -4.26345      -10.32583
C          9.33247       -4.81706      -11.13884
C         10.07666       -5.74573      -10.48538
S          9.54872       -5.97346       -8.85130
C         11.11233       -6.29928      -11.28752
C         11.17309       -5.70144      -12.53478
S          9.88485       -4.57524      -12.77184
C         12.07425       -5.93654      -13.61670
C         13.34580       -6.33369      -13.46125
C         14.05663       -6.95990      -14.62569
O         13.78131       -6.81656      -15.79839
C         15.08477       -7.85543      -14.02571
C         15.04014       -7.72635      -12.62072
C         14.18746       -6.56286      -12.28876
C         14.40389       -5.69866      -11.26704
C         13.79846       -4.40354      -11.22268
N         13.34180       -3.34203      -11.18294
C         15.33117       -5.96815      -10.22214
N         16.07677       -6.20683       -9.36519
C         15.75604       -8.60247      -11.82355
C         16.60821       -9.52046      -12.44156
C         16.75651       -9.56654      -13.84403
C         15.96374       -8.73554      -14.67381
C         16.12979       -8.81610      -16.07277
C         17.08841       -9.66200      -16.63206
C         17.87580      -10.46068      -15.81027
C         17.69915      -10.42547      -14.42741
H          7.51372       -2.36531        3.92525
H          6.84797       -2.85216        6.20882
H          2.74493        0.87382        5.66202
H          2.15231        0.29848        7.96603
H          3.48823       -1.36893        9.22642
H          5.40737       -2.47983        8.16204
H          3.19378        0.95488        0.86403
H          5.30162       -2.18457        0.34370
H          4.56719       -0.77254       -4.91184
H          7.61635       -3.50343      -10.68123
H         11.77790       -7.07424      -10.93106
H         11.66221       -5.87415      -14.62392
H         15.68946       -8.59728      -10.73976
H         17.19034      -10.19183      -11.81054
H         15.53689       -8.19609      -16.74282
H         17.22634       -9.68599      -17.71031
H         18.63267      -11.10908      -16.24430
H         18.32581      -11.06128      -13.80465
