81

C          3.79793        2.07401        2.39882
C          2.78932        2.22624        3.49632
O          2.43750        3.26765        4.01042
C          2.26722        0.85938        3.74419
C          3.02317       -0.07082        2.99351
C          4.13826        0.65072        2.32025
C          5.33473        0.12375        1.95747
C          6.46269        0.94656        1.65552
N          7.39838        1.59346        1.44411
C          5.58455       -1.28254        1.91016
N          5.76309       -2.42671        1.83663
C          2.64905       -1.40305        2.99544
C          1.56053       -1.79920        3.78206
C          0.82324       -0.87785        4.55330
C          1.16120        0.49591        4.53345
C          0.37466        1.39601        5.28668
C         -0.70193        0.94669        6.05241
C         -1.01500       -0.40692        6.08147
C         -0.25984       -1.31102        5.33409
C          3.94753        3.12742        1.57961
C          4.46966        3.07050        0.25397
C          4.41577        2.04719       -0.67780
C          5.05483        2.40588       -1.89907
C          5.49227        3.69389       -1.91139
S          5.19084        4.49778       -0.40016
C          6.08042        4.06838       -3.15357
C          6.14855        2.99597       -4.02289
S          5.38934        1.58628       -3.39573
C          6.79488        2.97837       -5.31399
C          6.49656        2.23378       -6.43214
F          5.49067        1.40328       -6.51641
C          7.38078        2.45511       -7.50155
F          7.25502        1.84986       -8.65257
C          8.37554        3.36599       -7.21326
S          8.17477        3.96435       -5.61580
C          9.46158        3.81673       -8.05140
C         10.08604        5.05077       -8.01803
C         11.07162        5.16092       -9.04349
C         11.21509        4.01427       -9.76160
S         10.14604        2.75936       -9.22269
C         12.19653        4.11459      -10.78580
C         12.66180        5.41206      -10.92061
S         12.14307        6.41219       -9.60679
C         13.53061        5.96962      -11.90399
C         13.60672        5.55171      -13.17521
C         14.82813        5.94340      -13.94976
O         15.53320        6.90835      -13.74060
C         15.02131        4.86776      -14.95733
C         13.93072        3.97141      -14.89221
C         12.91233        4.53195      -13.96512
C         11.57549        4.33741      -14.05673
C         10.63946        5.18382      -13.39412
N          9.85768        5.86699      -12.87137
C         10.98935        3.34234      -14.88915
N         10.52426        2.50974      -15.54864
C         13.96323        2.80790      -15.64268
C         15.04655        2.58773      -16.50021
C         16.10843        3.51015      -16.61245
C         16.11822        4.67969      -15.81414
C         17.20761        5.57102      -15.93293
C         18.24887        5.31778      -16.82702
C         18.22497        4.17358      -17.61564
C         17.16442        3.27392      -17.50421
H          3.15585       -2.16336        2.40914
H          1.28262       -2.85337        3.78663
H          0.59142        2.46283        5.28859
H         -1.29228        1.65644        6.62700
H         -1.84851       -0.76028        6.68280
H         -0.52852       -2.36571        5.36779
H          3.54071        4.09013        1.89365
H          3.95216        1.08288       -0.51842
H          6.45805        5.06123       -3.36443
H          9.83901        5.85360       -7.33413
H         12.47031        3.28555      -11.42424
H         14.22280        6.74226      -11.56173
H         13.18693        2.05128      -15.59345
H         15.05528        1.67633      -17.09828
H         17.25847        6.47644      -15.33301
H         19.07510        6.02048      -16.90853
H         19.03143        3.97956      -18.31769
H         17.16996        2.38281      -18.12932
