103

C          7.60901       -2.44862        0.81396
C          9.02046       -2.89918        0.58799
O         10.01840       -2.42495        1.09129
C          8.95025       -3.99702       -0.39775
C          7.60172       -4.34305       -0.62254
C          6.72834       -3.49111        0.25030
C          5.46134       -3.79412        0.61614
C          4.77542       -3.12318        1.67109
N          4.17574       -2.61053        2.52127
C          4.70859       -4.85893        0.03258
N          4.08562       -5.71069       -0.44736
C          7.32203       -5.35161       -1.53158
C          8.37988       -6.01894       -2.16554
C          9.72455       -5.66259       -1.94350
C         10.03341       -4.60860       -1.05546
C         11.38629       -4.23239       -0.89803
C         12.40476       -4.89581       -1.57992
C         12.09521       -5.95422       -2.42440
C         10.76489       -6.33437       -2.60547
C          7.51638       -1.17974        1.25083
C          6.37675       -0.33221        1.24169
C          6.04888        0.68781        2.11753
C          4.80963        1.34393        1.79035
N          4.27736        2.36695        2.51497
C          5.01565        2.63569        3.63223
C          6.21111        1.95365        3.98173
N          6.79586        0.98339        3.21769
C          6.89308        2.22339        5.29487
C          4.44819        3.69975        4.53152
C          4.14663        0.68377        0.77576
S          5.25586       -0.33754       -0.06012
C          2.71548        0.59153        0.45326
C          2.18386        0.48396       -0.84699
C          0.79543        0.16285       -1.07553
N          0.33191        0.12777       -2.34327
C          1.20076        0.24403       -3.36387
C          2.52815        0.50129       -3.14426
N          3.02006        0.66040       -1.89864
F          3.38178        0.58200       -4.17438
F          0.73767        0.06982       -4.61000
C         -0.09987       -0.13925       -0.01905
C          0.40764       -0.02708        1.30900
C          1.82981        0.36733        1.54868
N          2.12983        0.41892        2.85880
S          0.77417        0.04638        3.70842
N         -0.25003       -0.26317        2.45859
C         -1.50722       -0.54441       -0.23375
C         -2.09381       -1.31861       -1.21990
C         -3.53333       -1.27008       -1.17658
N         -4.33789       -1.69945       -2.19162
C         -3.60789       -2.09527       -3.27866
C         -2.19838       -2.24362       -3.28135
N         -1.39976       -1.92602       -2.22346
C         -1.46618       -2.66357       -4.52727
C         -4.39162       -2.24892       -4.55438
C         -4.02791       -0.67932       -0.02851
S         -2.74349        0.17358        0.73421
C         -5.38611       -0.48134        0.36558
C         -5.89157       -0.47562        1.61395
C         -5.18415       -0.94736        2.86441
O         -4.04269       -1.34359        2.97052
C         -6.19403       -0.99506        3.94653
C         -7.45058       -0.64212        3.42291
C         -7.27902       -0.14299        2.02444
C         -8.15503        0.66137        1.36390
C         -7.86492        1.27433        0.11120
N         -7.63944        1.77922       -0.91040
C         -9.41644        1.03925        1.90032
N        -10.44793        1.35637        2.33537
C         -8.57186       -0.80697        4.22393
C         -8.41759       -1.25120        5.54463
C         -7.15035       -1.53373        6.09046
C         -5.99592       -1.40645        5.28389
C         -4.73954       -1.68826        5.86965
C         -4.63060       -2.08936        7.20277
C         -5.77303       -2.22681        7.97965
C         -7.02404       -1.95179        7.42752
H          6.31603       -5.66518       -1.78761
H          8.14108       -6.82751       -2.85732
H         11.66570       -3.40665       -0.24642
H         13.43684       -4.58255       -1.44628
H         12.88869       -6.47976       -2.94870
H         10.54685       -7.16127       -3.27812
H          8.42194       -0.68549        1.61073
H          7.16551        3.27834        5.38536
H          7.80974        1.63079        5.38481
H          6.23510        1.94206        6.12396
H          3.55619        4.15201        4.08509
H          5.17884        4.49862        4.69169
H          4.15912        3.27020        5.49565
H         -1.56182       -1.89337       -5.29986
H         -1.85510       -3.61231       -4.90829
H         -0.39831       -2.79943       -4.32497
H         -5.46103       -2.09830       -4.37479
H         -4.25435       -3.24292       -4.98694
H         -4.07254       -1.48954       -5.27797
H         -6.03722       -0.32320       -0.48771
H         -9.58216       -0.62242        3.87448
H         -9.31078       -1.37056        6.15829
H         -3.82095       -1.58543        5.29481
H         -3.65081       -2.29386        7.62743
H         -5.69134       -2.54686        9.01572
H         -7.90504       -2.06662        8.05592
