115

C          2.72104        8.06833       -0.16093
C          2.19400        9.32815        0.50012
O          1.94769        9.47294        1.67845
C          2.11329       10.36290       -0.58896
C          2.58574        9.78697       -1.78243
C          2.53975        8.32472       -1.59100
C          1.83462        7.52805       -2.43447
C          1.18979        6.34708       -1.94680
N          0.58984        5.45698       -1.51814
C          1.50615        7.91410       -3.76367
N          1.24812        8.24704       -4.84629
C          2.85307       10.56449       -2.89455
C          2.49283       11.91199       -2.85405
C          1.82313       12.45797       -1.74001
C          1.62969       11.67969       -0.56464
C          0.90151       12.24363        0.50287
C          0.34703       13.52209        0.39510
C          0.55074       14.27981       -0.75463
C          1.30490       13.75872       -1.80848
C          3.34051        7.07981        0.52282
C          4.14026        6.00298       -0.02310
C          4.64520        4.86955        0.60450
C          5.60999        4.08692       -0.17492
C          6.35837        2.88955        0.34024
C          5.73199        1.86136        1.09603
C          6.39747        0.64456        1.34034
C          7.72763        0.48335        0.99017
C          8.41248        1.54607        0.41709
C          7.75420        2.75243        0.11107
O          8.41526        3.86484       -0.34950
C          9.81779        3.78780       -0.56571
O          4.46679        2.04533        1.60755
C          4.25999        1.50750        2.92543
C          5.73444        4.62346       -1.47330
S          4.71976        6.01055       -1.61754
C          6.44924        4.22980       -2.73347
C          6.65333        2.89590       -3.12919
C          7.18072        2.50258       -4.39340
F          7.29439        1.17563       -4.57231
C          7.55427        3.37311       -5.45073
C          7.39886        4.75176       -5.10935
C          6.86926        5.18887       -3.72676
N          6.85700        6.53222       -3.61498
S          7.30615        7.18301       -5.05499
N          7.66121        5.81522       -5.89336
C          8.04875        2.89687       -6.77286
C          8.40754        1.62214       -7.15868
C          8.85515        1.48273       -8.53089
C          9.38177        0.19646       -9.05371
C          8.64266       -1.00585       -8.85120
C          9.06700       -2.22282       -9.41005
C         10.27241       -2.29746      -10.09176
C         11.06316       -1.15728      -10.20247
C         10.64439        0.07783       -9.67297
O         11.54850        1.08965       -9.88938
C         11.92495        1.84590       -8.74116
O          7.48013       -0.96721       -8.11093
C          7.29798       -2.08572       -7.23540
C          8.75667        2.69623       -9.24174
S          8.29230        3.92440       -8.10826
C          9.11598        3.04028      -10.60788
C          9.03410        4.23965      -11.22245
C          9.90633        4.55091      -12.42847
O         10.33142        3.75729      -13.23862
C         10.20119        6.02031      -12.33981
C          9.48092        6.55415      -11.25613
C          8.49109        5.53890      -10.83541
C          7.18174        5.83017      -10.56884
C          6.17980        4.81143      -10.61331
N          5.34472        4.01567      -10.69434
C          6.72724        7.16396      -10.37309
N          6.36775        8.25490      -10.20805
C          9.75920        7.81882      -10.77480
C         10.72212        8.58177      -11.44342
C         11.36106        8.11310      -12.60579
C         11.09197        6.80650      -13.09702
C         11.71084        6.40132      -14.29803
C         12.56935        7.25974      -14.99272
C         12.86063        8.52232      -14.47818
C         12.26767        8.93839      -13.29216
H          3.28517       10.15078       -3.80183
H          2.66901       12.52369       -3.73900
H          0.70712       11.66807        1.40672
H         -0.26151       13.92040        1.20327
H          0.11106       15.27085       -0.84180
H          1.43972       14.36450       -2.70008
H          3.33260        7.14408        1.61132
H          4.37942        4.61723        1.62446
H          5.88755       -0.18759        1.81963
H          8.24118       -0.44997        1.21301
H          9.46881        1.39576        0.22181
H         10.35763        3.26810        0.23231
H         10.20811        4.80925       -0.58618
H         10.01122        3.32481       -1.53759
H          5.16668        1.15016        3.43167
H          3.53804        0.68682        2.86608
H          3.84185        2.29250        3.56284
H          6.36678        2.08937       -2.45530
H          8.37562        0.77923       -6.48185
H          8.45994       -3.12093       -9.32351
H         10.59683       -3.24070      -10.52224
H         12.02193       -1.22939      -10.70957
H         11.98910        1.24229       -7.83055
H         11.25669        2.69408       -8.59485
H         12.91075        2.27837       -8.93904
H          6.70456       -2.85700       -7.73649
H          6.74180       -1.74600       -6.35629
H          8.24509       -2.50847       -6.87549
H          9.65039        2.25860      -11.16038
H          9.26442        8.22851       -9.89831
H         10.95354        9.57625      -11.05338
H         11.50026        5.42301      -14.72761
H         13.00874        6.94562      -15.93509
H         13.54224        9.18226      -15.01049
H         12.50614        9.93082      -12.90895
