139

C          6.53558        1.77934        1.74302
C          6.54483        1.96592        3.23956
O          5.87967        1.35208        4.04675
C          7.59458        2.99835        3.50117
C          8.12843        3.42330        2.26671
C          7.20932        2.95660        1.20856
C          6.74841        3.78646        0.24132
C          5.48308        3.57322       -0.38900
N          4.46946        3.37815       -0.91747
C          7.45213        4.96019       -0.15213
N          8.05400        5.89676       -0.47672
C          9.26503        4.20803        2.22105
C          9.79067        4.67291        3.42587
C          9.17650        4.37854        4.66184
C          8.05659        3.50850        4.72060
C          7.45905        3.25244        5.97225
C          7.93669        3.87015        7.12936
C          9.03589        4.72023        7.06370
C          9.66090        4.95974        5.84088
C          6.22365        0.57704        1.22617
C          6.53688        0.12793       -0.09698
C          6.81063        0.79083       -1.26438
C          7.10617        0.02636       -2.44169
C          7.35937        0.42764       -3.78893
C          7.23851        1.87721       -4.21053
C          6.81602        2.44911       -5.41037
C          6.86133        3.88314       -5.43923
C          7.30297        4.40711       -4.24956
S          7.74993        3.16603       -3.18322
C          7.49183        5.83630       -3.86024
C          7.70839       -0.56045       -4.74178
C          7.79280       -1.92017       -4.39520
C          7.52310       -2.31476       -3.04562
C          7.14653       -1.32942       -2.09698
S          6.61544       -1.53100       -0.44241
C          7.65674       -3.76222       -2.64584
C          7.43274       -4.93376       -3.36277
C          7.72008       -6.13683       -2.63845
C          8.14841       -5.88068       -1.35888
S          8.25062       -4.21059       -1.07744
C          8.57085       -6.83861       -0.29587
C          8.17009       -2.69054       -5.56154
C          8.39550       -1.98196       -6.72648
S          8.13098       -0.33238       -6.40910
C          8.81077       -2.44171       -8.02129
C          9.03139       -3.74720       -8.26847
C          9.49473       -4.18295       -9.59390
C          9.74269       -5.48975       -9.87180
C         10.20556       -5.91426      -11.16780
N         10.57044       -6.21881      -12.20827
C          9.56562       -6.51617       -8.89730
N          9.40604       -7.32018       -8.07854
C          9.68615       -3.11646      -10.59249
C          9.44766       -1.83370      -10.25779
O          9.00213       -1.46140       -8.99265
C          9.64774       -0.76744      -11.19082
C         10.54020       -0.66096      -12.23527
C         10.43902        0.55123      -13.02970
C         11.19151        0.97995      -14.15637
C         12.18973        0.03988      -14.76717
C         12.14068       -1.34190      -14.93748
C         13.23061       -1.87110      -15.70159
C         14.04939       -0.87248      -16.17192
S         13.71468        0.59078      -15.37227
C         15.14421       -0.93630      -17.18065
C         10.92586        2.24116      -14.74543
C          9.84760        3.03597      -14.32426
C          9.11155        2.64778      -13.14933
C          9.43543        1.39913      -12.52408
S          8.73950        0.66089      -11.11313
C          8.03307        3.55903      -12.57071
C          7.17329        3.42883      -11.47901
C          6.25744        4.51548      -11.28364
C          6.39025        5.47034      -12.25450
S          7.73529        5.14170      -13.21006
C          5.58658        6.69470      -12.51339
C          9.66554        4.09823      -15.30070
C         10.68513        4.29204      -16.20085
S         11.80070        3.05024      -16.01822
C         10.84944        5.26636      -17.22726
C         10.43125        6.53662      -17.13001
C         10.23102        7.33144      -18.38838
O         10.80887        7.17028      -19.44323
C          9.11303        8.26894      -18.08172
C          8.77567        8.14161      -16.71595
C          9.79552        7.29276      -16.05675
C         10.23777        7.41894      -14.77979
C         11.42171        6.76852      -14.31821
N         12.39780        6.27857      -13.93158
C          9.61503        8.27884      -13.84971
N          9.08129        8.98810      -13.09254
C          7.62137        8.72959      -16.23230
C          6.85287        9.50684      -17.10318
C          7.23270        9.71571      -18.44639
C          8.38970        9.08411      -18.96737
C          8.73610        9.31342      -20.31689
C          7.96851       10.15754      -21.12155
C          6.83223       10.76887      -20.60379
C          6.46288       10.54265      -19.27827
H          9.74422        4.48699        1.28710
H         10.67225        5.31276        3.39204
H          6.59047        2.60095        6.05373
H          7.44121        3.69569        8.08125
H          9.40433        5.20599        7.96363
H         10.51839        5.62950        5.81408
H          5.81136       -0.17233        1.90490
H          6.78891        1.84656       -1.30196
H          6.49627        1.88162       -6.27346
H          6.59609        4.48969       -6.29783
H          7.81916        6.43197       -4.71727
H          8.26451        5.94013       -3.09319
H          6.56275        6.26840       -3.47125
H          7.08317       -4.96508       -4.38440
H          7.62576       -7.13567       -3.04898
H          8.03964       -7.79178       -0.38423
H          8.38153       -6.44743        0.71054
H          9.64433       -7.03515       -0.38543
H          8.29714       -3.75958       -5.54082
H          8.88637       -4.48943       -7.49339
H         10.01318       -3.36685      -11.59771
H         11.26965       -1.43727      -12.42250
H         11.33591       -1.97144      -14.58110
H         13.35009       -2.91646      -15.96085
H         16.10488       -0.65716      -16.73892
H         14.93704       -0.25445      -18.01533
H         15.23688       -1.94303      -17.60080
H          7.14263        2.59168      -10.80346
H          5.52368        4.55945      -10.48879
H          4.67746        6.70275      -11.90592
H          5.28104        6.74148      -13.56616
H          6.16567        7.59520      -12.28642
H          8.80674        4.74293      -15.35896
H         11.24588        4.91065      -18.17829
H          7.27981        8.59151      -15.21136
H          5.94121        9.96482      -16.71961
H          9.62223        8.85356      -20.75095
H          8.26249       10.33870      -22.15254
H          6.23297       11.42514      -21.23009
H          5.56709       11.02914      -18.89662
