133

C          6.09658       -0.91073        3.00489
C          6.01553       -2.13659        3.87149
O          5.44285       -3.17114        3.60155
C          6.85525       -1.82692        5.06749
C          7.32178       -0.49895        4.96741
C          6.56902        0.17846        3.88713
C          6.08391        1.43306        3.94890
C          4.97170        1.82532        3.14961
N          4.01308        2.11841        2.56722
C          6.51905        2.38653        4.92341
N          6.89711        3.13579        5.70935
C          8.29059       -0.02948        5.83514
C          8.70416       -0.86395        6.87573
C          8.14909       -2.14889        7.06161
C          7.21002       -2.66512        6.13318
C          6.67439       -3.95190        6.35147
C          7.03563       -4.69509        7.47613
C          7.95348       -4.18055        8.38524
C          8.51536       -2.92189        8.17261
C          6.01326       -1.04505        1.66813
C          6.46596       -0.08589        0.70524
C          6.03528        0.11644       -0.59204
C          6.71265        1.18174       -1.32486
C          6.51388        1.72501       -2.63306
C          5.46555        1.13278       -3.54365
C          4.22829        0.55832       -3.26552
C          3.47985        0.17369       -4.42622
C          4.13531        0.48926       -5.59229
S          5.73065        0.98885       -5.25934
C          3.63104        0.38843       -6.99631
C          7.30270        2.83880       -3.04995
C          8.34802        3.35061       -2.25894
C          8.55083        2.80277       -0.96260
C          7.73307        1.72823       -0.52627
S          7.81853        0.89558        0.98090
C          9.59998        3.37607       -0.03999
C         10.40022        2.76486        0.92315
C         11.24639        3.65982        1.64911
C         11.10981        4.95735        1.22040
S          9.90755        5.08239        0.02088
C         11.83041        6.17194        1.70365
C          9.08345        4.35978       -2.99414
C          8.57422        4.66612       -4.23139
S          7.13881        3.81580       -4.48621
C          9.11512        5.58803       -5.19682
C          9.10111        5.50315       -6.56992
F          8.56527        4.51437       -7.23609
C          9.75322        6.57968       -7.20067
F          9.85538        6.67291       -8.50098
C         10.28088        7.50026       -6.31871
S          9.93848        7.01476       -4.70352
C         10.99397        8.72210       -6.62131
C         10.86162        9.49026       -7.75211
C         11.70524       10.66682       -7.82665
C         11.85347       11.67594       -8.83222
C         10.85205       11.78669       -9.97947
C          9.72274       11.03974      -10.31699
C          9.02905       11.46129      -11.49610
C          9.60110       12.57225      -12.05230
S         10.87556       13.12506      -11.09195
C          9.21612       13.28725      -13.30053
C         12.95122       12.57784       -8.70698
C         13.68433       12.72750       -7.51847
C         13.49524       11.75537       -6.49505
C         12.53456       10.72120       -6.68576
S         12.14556        9.41744       -5.60001
C         14.36088       11.76770       -5.26314
C         14.91017       10.71909       -4.52684
C         15.70380       11.13373       -3.40894
C         15.79111       12.50166       -3.32292
S         14.79131       13.24711       -4.47943
C         16.56484       13.34026       -2.36245
C         14.46825       13.95607       -7.59586
C         14.45329       14.58837       -8.81833
S         13.76629       13.50407       -9.93304
C         15.08553       15.80171       -9.22752
C         14.60145       16.61242      -10.18241
C         15.55202       17.50989      -10.92377
O         16.57181       17.99968      -10.48671
C         15.02028       17.55955      -12.31844
C         13.78266       16.88256      -12.35701
C         13.37305       16.58368      -10.97095
C         12.10608       16.57912      -10.49056
C         11.83302       16.53811       -9.09164
N         11.60389       16.54212       -7.95179
C         10.97597       16.73329      -11.34335
N         10.06702       16.86015      -12.05516
C         13.20156       16.55871      -13.56984
C         13.82385       16.99618      -14.74095
C         15.00577       17.76774      -14.70932
C         15.63591       18.06225      -13.47340
C         16.81615       18.83378      -13.47840
C         17.34600       19.32267      -14.67329
C         16.72627       19.02611      -15.88240
C         15.57123       18.24487      -15.90087
H          8.72923        0.95887        5.74069
H          9.45136       -0.48755        7.57391
H          5.94469       -4.37711        5.66475
H          6.59093       -5.67273        7.64504
H          8.22961       -4.75591        9.26527
H          9.23060       -2.53996        8.89861
H          5.67235       -1.99879        1.26294
H          5.22248       -0.47235       -0.99249
H          3.82063        0.43888       -2.27211
H          2.48717       -0.26155       -4.39985
H          3.57339       -0.65758       -7.31273
H          4.26546        0.92763       -7.70841
H          2.62497        0.81940       -7.07317
H         10.39109        1.70626        1.14254
H         11.91724        3.35764        2.44565
H         11.97872        6.12241        2.78772
H         11.27262        7.08928        1.48935
H         12.81500        6.25310        1.22987
H          9.98418        4.83729       -2.63427
H         10.17851        9.16589       -8.51440
H          9.33826       10.19386       -9.78187
H          8.15611       10.96404      -11.90248
H          9.54234       12.71145      -14.17321
H          9.66869       14.28121      -13.36824
H          8.12981       13.40897      -13.35570
H         14.76555        9.67142       -4.75546
H         16.19522       10.45519       -2.72072
H         17.07547       12.72365       -1.61548
H         15.89978       14.02890       -1.83147
H         17.32730       13.93083       -2.88376
H         15.01351       14.40219       -6.77851
H         16.07237       16.00005       -8.81065
H         12.29963       15.95782      -13.64041
H         13.36925       16.73595      -15.69668
H         17.32128       19.08609      -12.54754
H         18.24111       19.93939      -14.65638
H         17.13901       19.40634      -16.81347
H         15.10680       18.02203      -16.85968
