149

C         -0.22340       -0.67843        3.69893
C         -1.39442        0.20848        3.36371
O         -1.43601        1.03836        2.47717
C         -2.49099       -0.17493        4.29830
C         -2.01759       -1.15242        5.19851
C         -0.55366       -1.33245        4.97163
C          0.26119       -1.52492        6.02620
C          1.48521       -0.82865        6.15261
N          2.49120       -0.24384        6.27677
C         -0.03212       -2.45419        7.07273
N         -0.24391       -3.26767        7.86645
C         -2.86156       -1.64484        6.18181
C         -4.15258       -1.12494        6.28907
C         -4.62873       -0.14193        5.40303
C         -3.80010        0.33997        4.35924
C         -4.33497        1.30108        3.47366
C         -5.63756        1.78140        3.62971
C         -6.42897        1.32228        4.67584
C         -5.92745        0.36579        5.55603
C          0.67514       -0.93135        2.72022
C          1.63172       -2.05737        2.53554
C          1.97162       -2.48008        1.23718
C          2.73345       -3.65165        1.02040
C          3.18305       -4.42469        2.09895
C          2.93655       -3.95010        3.38030
C          2.19098       -2.78551        3.58000
C          3.77013       -5.79247        1.92224
C          2.83818       -6.96280        2.11566
C          2.54453       -7.38125        3.42991
C          1.63650       -8.41498        3.68230
C          1.01427       -9.06090        2.62071
C          1.28188       -8.65177        1.31353
C          2.17703       -7.59882        1.06042
C          5.12121       -5.98633        1.78325
C          5.67104       -7.34359        1.47705
C          5.80169       -7.75371        0.14089
C          6.34863       -9.00295       -0.17348
C          6.78147       -9.85162        0.84300
C          6.67253       -9.44933        2.17272
C          6.11856       -8.20362        2.48881
C          6.07662       -4.86711        2.08092
C          6.61499       -4.77810        3.37367
C          7.42129       -3.69670        3.75581
C          7.70637       -2.65473        2.86329
C          7.25313       -2.80125        1.53986
C          6.45293       -3.89674        1.14938
C          8.39212       -1.41889        3.30849
C          9.21998       -0.55185        2.62935
F          9.60919       -0.74207        1.39566
C          9.59349        0.58821        3.37747
F         10.35607        1.52940        2.88551
C          9.04130        0.63988        4.64135
S          8.12364       -0.80131        4.90304
C          9.13668        1.68470        5.69282
C          8.09237        1.91256        6.60318
C          8.17331        2.92269        7.57912
C          9.32694        3.71048        7.72358
C         10.36033        3.51404        6.79915
C         10.26347        2.51845        5.79950
C          9.38203        4.76733        8.80466
C          8.91157        6.11990        8.37441
C          9.82879        7.02196        7.81554
C          9.39870        8.25320        7.31831
C          8.04649        8.58678        7.36166
C          7.12233        7.68391        7.88737
C          7.55136        6.45223        8.38978
C          9.83668        4.56163       10.09414
C          9.76285        5.69527       11.11653
C          8.66390        5.79651       11.98799
C          8.63229        6.75671       13.01558
C          9.70143        7.63014       13.19752
C         10.80312        7.54334       12.35061
C         10.83226        6.58866       11.31798
C         10.48207        3.24968       10.53248
C         11.53030        3.25178       11.46837
C         12.24284        2.08159       11.79510
C         11.91372        0.85248       11.22003
C         10.83478        0.82397       10.34350
C         10.11531        1.98967       10.04981
C         12.72383       -0.36873       11.35973
C         13.49766       -0.78066       12.37358
C         14.53237       -1.83158       12.08826
O         14.48955       -2.66765       11.21035
C         15.63345       -1.56907       13.05377
C         15.23433       -0.54164       13.93794
C         13.79965       -0.24521       13.69492
C         12.89728        0.12730       14.63348
C         11.49274       -0.00412       14.41872
N         10.34951       -0.15946       14.29141
C         13.27886        0.53295       15.94431
N         13.60322        0.87500       17.00525
C         16.15214       -0.00882       14.82551
C         17.44023       -0.55349       14.86595
C         17.82495       -1.62300       14.02869
C         16.91013       -2.15360       13.08735
C         17.33092       -3.21888       12.26040
C         18.61686       -3.74983       12.36957
C         19.50919       -3.22185       13.29500
C         19.11705       -2.16418       14.11556
H         -2.56304       -2.39695        6.90316
H         -4.79018       -1.49194        7.09282
H         -3.74295        1.68765        2.64656
H         -6.02949        2.51909        2.93387
H         -7.43807        1.70474        4.80624
H         -6.56426        0.01962        6.36850
H          0.60071       -0.30434        1.82348
H          1.60755       -1.93530        0.36655
H          2.92538       -3.97554        0.00012
H          3.28138       -4.49884        4.25140
H          2.06308       -2.50782        4.60388
H          3.01241       -6.89022        4.27903
H          1.41523       -8.71037        4.70532
H          0.31909       -9.87582        2.81176
H          0.78368       -9.15382        0.48765
H          2.34097       -7.28041        0.03577
H          5.48907       -7.09718       -0.66699
H          6.44429       -9.31105       -1.21167
H          7.20784      -10.82203        0.59988
H          7.02345      -10.10487        2.96571
H          6.04584       -7.91131        3.53180
H          6.39146       -5.54233        4.11392
H          7.79611       -3.67478        4.77681
H          7.48131       -2.03915        0.79679
H          6.10863       -3.96153        0.12068
H          7.18476        1.31253        6.57258
H          7.33924        3.04985        8.26664
H         11.25075        4.13701        6.83352
H         11.09426        2.40514        5.10471
H         10.88043        6.75725        7.74386
H         10.11696        8.94504        6.88688
H          7.71143        9.54594        6.97536
H          6.06491        7.93507        7.89534
H          6.81722        5.74715        8.76968
H          7.82550        5.11173       11.89383
H          7.77720        6.81310       13.68639
H          9.67909        8.36730       13.99899
H         11.64765        8.21201       12.50482
H         11.72169        6.52564       10.69713
H         11.84747        4.17363       11.94900
H         13.08735        2.18165       12.46859
H         10.53837       -0.09753        9.84454
H          9.26359        1.85487        9.40404
H         12.74839       -0.96226       10.44102
H         15.91769        0.81951       15.48695
H         18.15578       -0.13673       15.57503
H         16.65520       -3.65854       11.52898
H         18.91694       -4.57774       11.73187
H         20.51168       -3.63355       13.38052
H         19.83408       -1.76699       14.83162
