133

C          3.83464        0.75649       -2.09244
C          3.92407        2.08829       -2.78534
O          3.90708        3.18036       -2.25967
C          4.14657        1.75578       -4.22237
C          4.04074        0.35569       -4.38623
C          3.51102       -0.21275       -3.13148
C          2.59813       -1.20870       -3.04291
C          1.87187       -1.45414       -1.83967
N          1.24509       -1.64213       -0.88194
C          2.19649       -1.96714       -4.18066
N          1.89322       -2.57925       -5.11870
C          4.44256       -0.24319       -5.56552
C          4.87813        0.57824       -6.60696
C          4.88766        1.98641       -6.49111
C          4.51556        2.60551       -5.27246
C          4.52880        4.01571       -5.19272
C          4.88073        4.78926       -6.29864
C          5.25359        4.17388       -7.48923
C          5.26745        2.78235       -7.58011
C          4.32737        0.64869       -0.84938
C          4.77192       -0.56970       -0.25174
C          5.30758       -1.71287       -0.80817
C          5.67139       -2.75320        0.13464
C          6.20278       -4.05723       -0.07012
C          6.39768       -4.54687       -1.47395
C          5.58988       -4.38800       -2.59477
C          6.10284       -5.01092       -3.77636
C          7.26972       -5.69758       -3.53155
S          7.82987       -5.39633       -1.94912
C          8.03911       -6.58671       -4.45379
C          6.51073       -4.87619        1.04525
C          6.34465       -4.42100        2.36261
C          5.82470       -3.11535        2.56251
C          5.48419       -2.30339        1.45129
S          4.85904       -0.68443        1.44128
C          5.72737       -2.60179        3.95993
C          6.64659       -2.70262        4.99808
C          6.23725       -2.04151        6.19514
C          5.03877       -1.38595        6.03286
S          4.31337       -1.79856        4.54269
C          4.37801       -0.43053        6.96893
C          6.76197       -5.43715        3.31109
C          7.26957       -6.58036        2.73600
S          7.08356       -6.50832        1.05506
C          7.85228       -7.76167        3.36363
N          8.30483       -8.74951        2.56829
C          8.79709       -9.82317        3.21674
C          8.84434       -9.91927        4.59365
N          8.39925       -8.88931        5.34093
N          7.89373       -7.78651        4.71420
C          9.32603      -11.10574        5.28881
C          9.32004      -12.41007        4.85967
C          9.95598      -13.37525        5.73319
C         10.16446      -14.79504        5.62832
C          9.82705      -15.57846        4.35806
C          9.93303      -16.93682        4.04334
C          9.41597      -17.31513        2.76136
C          8.95910      -16.23133        2.06054
S          9.32263      -14.80324        2.88924
C          8.28287      -16.18792        0.73298
C         10.68863      -15.47226        6.77038
C         11.21562      -14.79304        7.87930
C         11.00082      -13.39690        7.96895
C         10.36463      -12.71265        6.90819
S          9.95879      -11.02396        6.84434
C         11.36721      -12.65929        9.21883
C         11.87463      -11.37678        9.39308
C         12.05700      -11.00315       10.75806
C         11.76851      -12.03731       11.61555
S         11.06393      -13.34801       10.78109
C         11.97703      -12.10078       13.09036
C         11.95143      -15.71239        8.73469
C         11.76896      -17.04474        8.43983
S         10.65824      -17.15588        7.15435
C         12.22906      -18.19907        9.15122
C         12.47567      -19.39259        8.58782
C         12.38542      -20.62866        9.43782
O         12.63835      -20.71057       10.62075
C         11.81728      -21.67287        8.53297
C         11.74256      -21.14873        7.22551
C         12.44588      -19.84824        7.20655
C         13.13198      -19.32047        6.17209
C         13.98547      -18.18074        6.33520
N         14.69470      -17.27147        6.45831
C         13.12426      -19.89886        4.87563
N         13.09002      -20.37041        3.81999
C         11.02504      -21.81434        6.24760
C         10.44295      -23.04160        6.57195
C         10.58869      -23.61871        7.85176
C         11.29265      -22.92893        8.87154
C         11.41609      -23.53648       10.13924
C         10.87004      -24.79739       10.38626
C         10.17244      -25.46258        9.38410
C         10.02610      -24.87353        8.12866
H          4.44774       -1.32054       -5.69872
H          5.20351        0.10712       -7.53555
H          4.23735        4.52609       -4.27589
H          4.85868        5.87415       -6.23018
H          5.52966        4.77698       -8.35086
H          5.56699        2.32412       -8.52133
H          4.52440        1.56545       -0.29083
H          5.46651       -1.80902       -1.87286
H          4.64936       -3.85554       -2.58251
H          5.61218       -4.99484       -4.74314
H          7.60746       -7.59483       -4.45912
H          9.09076       -6.67403       -4.16178
H          8.00912       -6.20398       -5.47924
H          7.59846       -3.21176        4.91064
H          6.82773       -1.99513        7.10296
H          4.58238       -0.69839        8.01083
H          3.29260       -0.39714        6.83533
H          4.77172        0.57941        6.80196
H          6.71365       -5.32268        4.38795
H          9.15740      -10.61582        2.56887
H          8.83673      -12.63787        3.92585
H         10.32750      -17.69936        4.69109
H          9.37067      -18.33362        2.39326
H          9.01545      -16.25999       -0.07659
H          7.71146      -15.26258        0.59675
H          7.57780      -17.02052        0.63569
H         12.10529      -10.70025        8.58056
H         12.42806      -10.03805       11.08292
H         12.36335      -11.14925       13.47244
H         12.71253      -12.87479       13.33791
H         11.04472      -12.32239       13.61784
H         12.56030      -15.39770        9.57375
H         12.24387      -18.11591       10.23760
H         10.86959      -21.40395        5.25470
H          9.86462      -23.55819        5.80582
H         11.95832      -23.04239       10.94354
H         10.99203      -25.25897       11.36307
H          9.74261      -26.44233        9.57730
H          9.47073      -25.41078        7.36206
