97

C          5.61039       -5.10398       -7.49814
C          4.42210       -4.95096       -8.40001
O          4.27629       -4.10928       -9.26187
C          3.51632       -6.08309       -8.07140
C          4.08645       -6.84530       -7.02596
C          5.27088       -6.11083       -6.49696
C          5.69566       -6.15800       -5.21090
C          6.40708       -5.09456       -4.58126
N          6.91641       -4.25409       -3.96538
C          5.36463       -7.21945       -4.33151
N          5.13443       -8.11131       -3.62003
C          3.45924       -8.01201       -6.62089
C          2.22790       -8.35201       -7.18994
C          1.61674       -7.55000       -8.17358
C          2.27758       -6.39741       -8.66223
C          1.64348       -5.63836       -9.67197
C          0.37783       -5.98611      -10.14887
C         -0.27516       -7.10104       -9.63749
C          0.34569       -7.88397       -8.66545
C          6.77483       -4.53444       -7.84119
C          8.07394       -4.80794       -7.24838
C          8.84465       -3.88699       -6.65179
C         10.12337       -4.12170       -6.02241
C         10.65805       -3.02796       -5.45300
C          9.84343       -1.83766       -5.60556
S          8.36852       -2.22892       -6.49830
C         10.08849       -0.59117       -5.16325
C         11.21372       -0.08909       -4.40019
C         11.07271        1.19299       -4.01686
C          9.82587        1.79850       -4.45270
S          8.95261        0.70802       -5.46544
C          9.37323        3.00048       -4.06720
C          8.10886        3.58225       -4.41960
C          7.28714        3.54556       -5.53380
F          7.52720        2.86003       -6.61883
C          6.14803        4.36839       -5.44122
F          5.25315        4.45858       -6.39021
C          6.08886        5.10645       -4.28357
S          7.33803        4.55410       -3.22213
C          5.09584        6.05087       -3.87589
C          5.31799        7.12977       -3.10767
C          4.26382        7.84035       -2.41397
C          4.69936        8.36873       -1.25622
C          6.12033        8.12746       -1.03151
S          6.86497        7.74296       -2.57178
C          6.74962        8.01473        0.15298
C          6.12718        8.15726        1.45282
C          6.90501        7.76477        2.47034
C          8.21169        7.29701        2.05999
S          8.42718        7.47884        0.34115
C          9.10497        6.77003        2.91068
C         10.42877        6.26742        2.59299
C         10.88053        5.01592        2.77786
C         12.17742        4.59100        2.14156
O         13.10667        5.31346        1.84725
C         12.05059        3.12471        1.91334
C         10.82031        2.68674        2.44763
C         10.24501        3.79068        3.26074
C          9.56797        3.61599        4.42048
C          9.40204        4.66613        5.36873
N          9.28124        5.50509        6.16164
C          9.10836        2.34208        4.85706
N          8.72592        1.30251        5.20950
C         10.37180        1.40574        2.17285
C         11.19448        0.55011        1.43225
C         12.46968        0.95110        0.97986
C         12.92799        2.26903        1.22520
C         14.22124        2.62701        0.78528
C         15.03499        1.70883        0.11867
C         14.56711        0.42597       -0.14150
C         13.29230        0.05138        0.28300
H          3.86518       -8.67221       -5.86244
H          1.72734       -9.25347       -6.83618
H          2.12097       -4.75319      -10.08851
H         -0.09994       -5.37689      -10.91236
H         -1.26859       -7.36248       -9.99313
H         -0.18335       -8.75393       -8.28081
H          6.78979       -3.82714       -8.67409
H          8.42179       -5.83477       -7.31979
H         10.59120       -5.09572       -6.00642
H         11.60477       -3.02767       -4.93191
H         12.07339       -0.69337       -4.14667
H         11.80098        1.72719       -3.41974
H          9.98252        3.56545       -3.36323
H          4.07270        5.80274       -4.15054
H          3.23200        7.83538       -2.73592
H          4.05457        8.85127       -0.53713
H          5.11395        8.50838        1.58573
H          6.58499        7.77013        3.50346
H          8.83085        6.75035        3.95899
H         11.07008        6.98125        2.07172
H          9.40268        1.04160        2.50083
H         10.83652       -0.45831        1.22315
H         14.62105        3.62037        0.98224
H         16.03603        1.99830       -0.19230
H         15.19763       -0.28730       -0.66656
H         12.94936       -0.96040        0.07394
