105

C          4.97017       -3.31800       -1.68099
C          4.01500       -3.85468       -2.71445
O          3.50653       -4.95772       -2.71362
C          3.84009       -2.77939       -3.72595
C          4.57050       -1.64093       -3.31976
C          5.14595       -1.88652       -1.95980
C          5.50010       -0.91518       -1.08526
C          5.55496       -1.15845        0.31925
N          5.53339       -1.31474        1.47107
C          5.71357        0.44780       -1.45292
N          5.89918        1.55263       -1.74906
C          4.55912       -0.51515       -4.12844
C          3.76581       -0.50688       -5.27820
C          3.01414       -1.62550       -5.67062
C          3.05970       -2.81454       -4.90435
C          2.31730       -3.92569       -5.37052
C          1.54347       -3.84620       -6.53324
C          1.48581       -2.65869       -7.25340
C          2.22039       -1.55660       -6.82556
C          5.60086       -4.20174       -0.88411
C          6.75026       -4.00307       -0.00788
C          7.97739       -3.60032       -0.37626
C          9.10404       -3.36757        0.50309
C         10.12473       -2.71734       -0.08557
C          9.85531       -2.37130       -1.46849
S          8.41893       -3.24681       -2.01799
C         10.45569       -1.43426       -2.22578
C         11.56738       -0.55857       -1.91203
C         11.62623        0.53258       -2.70222
C         10.55380        0.59661       -3.68322
S          9.78562       -0.96134       -3.76941
C         10.14399        1.69905       -4.34572
C          8.95738        1.83422       -5.22494
C          8.39485        0.83980       -6.05000
F          9.06114       -0.30350       -6.27085
C          7.14787        0.93779       -6.70804
F          6.67218       -0.21640       -7.19618
C          6.38890        2.11157       -6.81155
C          6.96821        3.17713       -6.08337
C          8.21629        3.04617       -5.28086
N          8.42037        4.23118       -4.66576
N          7.36990        4.96542       -5.07154
N          6.51531        4.43461       -5.94861
C          7.00665        6.19433       -4.40607
C          5.11487        2.34861       -7.51788
C          4.63732        1.75049       -8.62117
C          3.47031        2.19539       -9.35812
C          3.47848        1.78781      -10.64046
C          4.65480        0.99951      -10.96913
S          5.40245        0.45636       -9.48785
C          5.25395        0.85227      -12.16320
C          4.86588        1.48898      -13.40389
C          5.87651        1.57871      -14.28212
C          7.11060        0.99351      -13.79693
S          6.81150        0.03918      -12.37519
C          8.35880        1.17655      -14.25201
C          8.73350        2.07956      -15.31162
C          8.55067        3.40857      -15.32399
C          8.56196        4.05597      -16.66897
O          9.14739        3.65887      -17.65520
C          7.65800        5.22335      -16.54960
C          7.30088        5.40717      -15.19449
C          7.97985        4.36743      -14.36894
C          8.18458        4.39628      -13.02474
C          9.10811        3.52485      -12.37209
N          9.88594        2.86090      -11.82733
C          7.57216        5.35424      -12.17068
N          7.05270        6.12896      -11.46895
C          6.43850        6.44087      -14.86667
C          5.96048        7.27853      -15.88209
C          6.29775        7.07597      -17.23570
C          7.15376        6.01174      -17.59819
C          7.42186        5.79468      -18.96804
C          6.87248        6.61949      -19.94903
C          6.05923        7.68391      -19.58203
C          5.77445        7.91127      -18.23528
H          5.12206        0.38343       -3.91043
H          3.73390        0.40079       -5.87775
H          2.33702       -4.87167       -4.83267
H          0.98597       -4.71432       -6.87539
H          0.87922       -2.59053       -8.15284
H          2.17244       -0.63822       -7.40781
H          5.26713       -5.24223       -0.90241
H          6.56540       -4.24806        1.03753
H          9.09924       -3.66345        1.54384
H         11.02969       -2.42446        0.42837
H         12.26529       -0.76047       -1.11143
H         12.37132        1.31041       -2.60642
H         10.65724        2.63867       -4.14735
H          7.90495        6.77382       -4.19026
H          6.48059        5.92417       -3.48676
H          6.33885        6.76723       -5.05752
H          4.55733        3.20416       -7.13425
H          2.71451        2.83804       -8.92801
H          2.72233        2.05433      -11.36389
H          3.88059        1.89716      -13.57526
H          5.79077        2.05005      -15.25076
H          9.19087        0.64565      -13.78684
H          9.12961        1.57851      -16.19690
H          6.10163        6.63896      -13.85494
H          5.29420        8.09585      -15.60632
H          8.05274        4.96893      -19.29139
H          7.08350        6.42607      -20.99772
H          5.63861        8.33433      -20.34455
H          5.12794        8.74673      -17.97315
