105

C          3.81269        0.01924       -1.45711
C          2.85799        0.11533       -2.60787
O          1.75198       -0.38031       -2.66693
C          3.52372        1.00541       -3.59674
C          4.84517        1.26802       -3.16942
C          5.12183        0.45954       -1.95350
C          6.33369        0.02961       -1.52436
C          6.46697       -0.98129       -0.52399
N          6.59093       -1.82602        0.26312
C          7.55887        0.49475       -2.07862
N          8.55746        0.89060       -2.52030
C          5.61794        2.17940       -3.86928
C          5.08385        2.77773       -5.01559
C          3.77794        2.49253       -5.46521
C          2.95764        1.59411       -4.74096
C          1.64238        1.36127       -5.19992
C          1.16038        1.98470       -6.35163
C          1.97796        2.85311       -7.06476
C          3.27591        3.10765       -6.62255
C          3.27143       -0.11360       -0.23277
C          3.90814        0.26185        0.98854
C          3.76311       -0.30670        2.25818
C          4.55446        0.36346        3.22402
C          5.25601        1.40081        2.65188
S          4.89321        1.70650        1.07126
C          6.08225        2.00716        3.61640
C          5.89479        1.39050        4.83348
C          4.84531        0.26487        4.73440
C          5.42023       -1.09199        5.13390
C          3.59604        0.60681        5.55279
C          6.70879        1.97907        5.83028
C          7.48339        3.01492        5.30430
S          7.19807        3.22824        3.60158
C          8.44313        3.89127        5.94700
N          8.64156        5.14512        5.45698
N          9.55732        6.07768        6.03270
C         10.32182        5.79432        7.11987
C         10.15972        4.50387        7.65539
C          9.21523        3.55366        7.07185
N          9.27224        2.42120        7.79030
O         10.20265        2.64175        8.78509
N         10.74411        3.90860        8.70776
C         11.19608        6.81056        7.67167
C         12.41417        6.68247        8.33809
C         12.90656        7.94399        8.74542
C         12.04702        8.96206        8.38457
S         10.70241        8.47559        7.54867
C         12.56941       10.19874        8.82356
C         13.77799        9.97977        9.44925
C         14.12520        8.48171        9.51020
C         15.44414        8.16607        8.80500
C         14.13405        7.97042       10.95463
C         14.38329       11.19830        9.82309
C         13.55513       12.29455        9.55678
S         12.09046       11.78673        8.75646
C         13.75548       13.69040        9.78888
C         14.46600       14.17676       10.81344
C         14.97592       15.59165       10.78053
O         14.51704       16.51053       10.12860
C         16.20479       15.58656       11.62600
C         16.38037       14.29369       12.16253
C         15.13362       13.53349       11.93710
C         14.57539       12.67630       12.82504
C         13.20191       12.28487       12.74634
N         12.08271       11.97998       12.72412
C         15.27574       12.20293       13.96932
N         15.85773       11.80281       14.89014
C         17.56462       13.95232       12.78931
C         18.51797       14.95133       12.99060
C         18.28652       16.28544       12.59355
C         17.11334       16.62534       11.87290
C         16.91442       17.97025       11.49544
C         17.82929       18.95834       11.86393
C         18.97207       18.61833       12.57981
C         19.20828       17.28819       12.92520
H          6.61757        2.46706       -3.56004
H          5.70293        3.48906       -5.56268
H          0.97550        0.68711       -4.66584
H          0.14564        1.78864       -6.68900
H          1.60527        3.33678       -7.96410
H          3.89500        3.79739       -7.19322
H          2.22786       -0.41734       -0.14672
H          3.13455       -1.16633        2.45894
H          6.32157       -1.33794        4.56049
H          4.69307       -1.89445        4.96521
H          5.69370       -1.10534        6.19563
H          3.17705        1.57840        5.26188
H          3.82459        0.65797        6.62320
H          2.81056       -0.14321        5.40712
H          6.72355        1.68081        6.87188
H         12.90646        5.73489        8.52395
H         15.45402        8.53426        7.77249
H         15.62592        7.08557        8.77026
H         16.29019        8.62999        9.32600
H         13.18938        8.19105       11.46692
H         14.93782        8.43559       11.53619
H         14.27603        6.88385       10.98803
H         15.36796       11.27295       10.26480
H         13.37345       14.37894        9.03408
H         17.77319       12.94500       13.13635
H         19.44301       14.68825       13.50349
H         16.02381       18.26992       10.94591
H         17.64051       19.99654       11.60179
H         19.67836       19.38920       12.87792
H         20.10950       17.04609       13.48514
