105

C          3.61988       -1.73186        0.10937
C          3.98141       -3.17329        0.51159
O          4.78633       -3.89915       -0.03812
C          3.20558       -3.44596        1.77152
C          2.43641       -2.30307        2.06174
C          2.34361       -1.53756        0.80298
C          1.10294       -1.52520        0.22995
C          0.89769       -1.63407       -1.18420
N          0.70561       -1.68688       -2.32555
C         -0.08932       -1.36884        1.00652
N         -1.03592       -1.18454        1.64991
C          1.80191       -2.13936        3.27815
C          1.83041       -3.20445        4.17235
C          2.42992       -4.43360        3.82798
C          3.14193       -4.57680        2.60237
C          3.66637       -5.84544        2.27737
C          3.46870       -6.93955        3.12684
C          2.78947       -6.78101        4.33144
C          2.28841       -5.53121        4.68648
C          4.60677       -0.93759       -0.38775
C          5.00989        0.53403       -0.49717
C          4.33941        1.69415       -0.93194
O          3.04356        1.78448       -1.35960
C          2.13776        1.31954       -0.40145
C          4.99067        2.96628       -1.03471
O          4.19478        3.99905       -1.50504
C          4.53170        4.41572       -2.82175
C          6.29492        3.20957       -0.55949
C          6.99487        2.05022       -0.20762
C          6.37928        0.76555       -0.19917
C          6.84466        4.59706       -0.38635
C          8.17375        5.03009       -0.59729
C          8.60566        6.41356       -0.37808
N          9.92106        6.69284       -0.36056
C         10.79444        5.73180       -0.71628
C         10.37291        4.47512       -1.07282
N          9.07487        4.10752       -0.99503
F         11.25657        3.56680       -1.50836
F         12.09746        6.04397       -0.74218
C          7.70572        7.49570       -0.21159
C          6.34403        7.07641       -0.07060
C          5.96368        5.64025        0.02034
N          4.74040        5.49585        0.56715
S          3.97563        6.94722        0.46087
N          5.25028        7.86664       -0.02923
C          8.04563        8.96014       -0.04826
C          9.11831        9.69835       -0.61793
O         10.02190        9.10354       -1.46553
C          9.49713        8.75146       -2.73976
C          9.37716       11.06593       -0.23449
O         10.42657       11.83688       -0.69330
C         11.63304       11.20015       -1.09194
C          8.51059       11.75595        0.65966
C          7.42297       11.04111        1.12674
C          7.22934        9.70276        0.82076
C          8.82172       13.11400        1.23797
C          8.25547       13.76847        2.26330
C          9.12730       14.72267        3.04891
O         10.01942       15.41851        2.60990
C          8.71889       14.55001        4.47720
C          7.59284       13.70151        4.52386
C          7.11055       13.51167        3.14003
C          5.80415       13.50098        2.78517
C          5.39940       13.73907        1.43669
N          5.04618       13.95033        0.34447
C          4.75171       13.29603        3.72487
N          3.91290       13.07806        4.49419
C          7.13413       13.21617        5.73562
C          7.75395       13.65408        6.90580
C          8.82427       14.58095        6.87638
C          9.33616       15.04046        5.63402
C         10.41014       15.95703        5.64618
C         10.94156       16.41993        6.84973
C         10.43028       15.96585        8.05908
C          9.38321       15.04177        8.07189
H          1.25289       -1.23624        3.52651
H          1.31096       -3.09526        5.12427
H          4.18518       -6.00643        1.33378
H          3.83473       -7.92318        2.84183
H          2.63437       -7.63224        4.99050
H          1.75055       -5.43192        5.62801
H          5.47815       -1.52795       -0.70546
H          2.51461        1.25613        0.62752
H          1.92036        0.35568       -0.80070
H          1.19820        1.87444       -0.41079
H          4.40975        3.59886       -3.53683
H          5.54278        4.83023       -2.87525
H          3.83651        5.21814       -3.09165
H          8.04179        2.10539        0.08845
H          7.02540       -0.07202        0.07219
H         10.34375        8.43195       -3.35754
H          9.01509        9.60193       -3.22713
H          8.81029        7.90424       -2.68323
H         11.55919       10.85231       -2.12619
H         11.93105       10.39841       -0.40865
H         12.42640       11.95537       -1.07123
H          6.69339       11.44285        1.80101
H          6.39075        9.25251        1.34581
H          9.76441       13.51401        0.85621
H          6.32261       12.49880        5.80852
H          7.39305       13.27501        7.86091
H         10.83038       16.33503        4.71519
H         11.75387       17.14368        6.83950
H         10.83895       16.33264        8.99813
H          9.00208       14.69909        9.03098
