99

C          4.62729       -2.58520       -0.26659
C          4.97455       -3.62193       -1.30659
O          5.97799       -3.63737       -1.99292
C          3.87929       -4.61129       -1.31585
C          2.88399       -4.20728       -0.40334
C          3.27060       -2.89785        0.23501
C          2.44582       -2.14501        1.00893
C          2.71346       -0.80690        1.41446
N          2.84986        0.28852        1.77242
C          1.18175       -2.59858        1.48620
N          0.15171       -2.95151        1.89352
C          1.75308       -5.00485       -0.28390
C          1.61734       -6.15292       -1.07310
C          2.61286       -6.54861       -1.97901
C          3.79254       -5.78068       -2.10773
C          4.78115       -6.23648       -3.01161
C          4.59588       -7.39710       -3.76763
C          3.42018       -8.12646       -3.64470
C          2.43543       -7.70487       -2.75449
C          5.63011       -1.74127        0.03158
C          5.76112       -0.78169        1.08501
C          6.07840        0.51339        1.06132
C          6.12097        1.09752        2.36147
N          5.85712        0.10664        3.25347
C          5.61709       -1.08439        2.56132
O          5.29348       -2.17479        3.00494
C          5.75538        0.23370        4.67905
C          6.39203        2.40358        2.33109
C          6.53705        2.70495        0.86668
O          6.79139        3.80085        0.39844
N          6.35101        1.50238        0.17340
C          6.52642        1.40317       -1.24891
C          6.52108        3.39211        3.36846
N          7.70587        3.63150        3.98718
N          7.88226        4.62754        5.02702
C          6.87488        5.39677        5.52241
C          5.58843        5.12484        4.97684
C          5.41928        4.13966        3.83618
N          4.15392        4.08190        3.37976
S          3.25273        5.10067        4.32306
N          4.40415        5.61070        5.39117
C          7.10306        6.40789        6.53951
C          7.99863        6.53865        7.52699
C          7.76144        7.68611        8.34343
N          6.69197        8.33154        7.82869
C          6.29005        7.68444        6.66206
O          5.49172        8.10560        5.84320
C          6.08674        9.53945        8.32022
C          8.60096        7.80314        9.36945
C          9.54245        6.63549        9.16228
O         10.51048        6.38997        9.86270
N          9.08318        5.91266        8.06109
C          9.74348        4.73815        7.56113
C          8.70157        8.80860       10.39443
C          9.13640        8.65588       11.65547
C          9.49459        9.87761       12.45725
O          9.09354       11.00565       12.25687
C         10.47447        9.41292       13.47711
C         10.61934        8.01402       13.36624
C          9.58405        7.50314       12.43553
C          8.98056        6.29219       12.52311
C          7.78604        5.98858       11.80674
N          6.80852        5.75177       11.22598
C          9.42531        5.26833       13.40983
N          9.77761        4.43391       14.13190
C         11.61365        7.36667       14.07828
C         12.38511        8.10789       14.97659
C         12.17569        9.48915       15.16985
C         11.21175       10.17994       14.39390
C         11.04430       11.56634       14.60150
C         11.78526       12.24142       15.57307
C         12.71800       11.55251       16.33994
C         12.91978       10.18861       16.13126
H          0.93369       -4.79501        0.39090
H          0.70764       -6.74479       -0.96891
H          5.71568       -5.69345       -3.13723
H          5.37191       -7.72684       -4.45399
H          3.26894       -9.02501       -4.23738
H          1.52186       -8.29089       -2.67090
H          6.55071       -1.81113       -0.55584
H          6.72615        0.53617        5.07985
H          5.46929       -0.72268        5.12806
H          4.99620        0.98000        4.92925
H          6.00229        2.23113       -1.73666
H          6.15739        0.45587       -1.64519
H          7.59425        1.50638       -1.46722
H          5.89439        9.44437        9.39285
H          5.13604        9.72172        7.80997
H          6.75812       10.38065        8.12999
H         10.56448        4.45486        8.22801
H         10.16223        4.95370        6.57475
H          9.03429        3.90885        7.50892
H          8.45243        9.81691       10.05936
H         11.82100        6.30726       13.96242
H         13.15500        7.58828       15.54667
H         10.31758       12.13362       14.02316
H         11.62648       13.30492       15.73368
H         13.28933       12.07519       17.10285
H         13.65852        9.67088       16.74038
