77

C         11.72924        6.27051        3.41827
C         12.01700        7.54627        3.00607
S         11.16078        7.91795        1.54945
C         10.44075        6.37352        1.50147
Cl         9.36271        5.99206        0.22633
C         10.83868        5.59605        2.54809
C         10.55322        4.24902        2.96389
O          9.83297        3.44105        2.41403
C         11.38544        4.09976        4.24613
C         12.08963        5.41615        4.52806
C         12.84807        5.77185        5.59305
C         13.43282        7.07446        5.71045
N         13.90674        8.12241        5.80706
C         13.10789        4.91558        6.69431
N         13.31467        4.21656        7.59838
C         11.46846        2.93911        4.92644
C         10.80177        1.72691        4.57530
C          9.55678        1.26866        5.00534
C          9.27458       -0.01086        4.45220
C         10.33510       -0.47200        3.72814
S         11.66449        0.55604        3.60951
C         10.21758       -1.74930        3.22656
C          9.04162       -2.39179        3.47925
S          8.08729       -1.26465        4.37507
C          9.06209       -3.71331        2.95538
C         10.32186       -4.01305        2.43344
S         11.38651       -2.63104        2.39791
C         10.76322       -5.31155        1.94097
C         10.43330       -6.58724        2.42772
C          9.72220       -6.76034        3.65545
N          9.16287       -6.83278        4.67041
C         10.87088       -7.57570        1.51923
C         11.63381       -7.07774        0.52026
S         11.82401       -5.42496        0.56318
S         12.16011       -8.21703       -0.60221
C         11.22871       -9.37334        0.19030
C         10.63186       -8.93905        1.32327
C          9.84862       -9.93014        1.95093
C          9.19984       -9.86097        3.22370
N          8.68770       -9.86756        4.26423
C          9.73503      -11.04831        1.10823
S         10.85133      -10.94074       -0.22544
C          8.83188      -12.18640        1.18673
C          9.06081      -13.48535        0.73088
C          7.94573      -14.31961        1.01768
C          6.93475      -13.59712        1.57707
S          7.21415      -11.95782        1.79744
C          5.82750      -14.30181        1.97827
C          5.91629      -15.65479        1.86425
S          7.37066      -15.94911        0.97850
C          4.87212      -16.28369        2.59088
C          4.07317      -15.33212        3.23067
S          4.47028      -13.69730        2.76606
C          3.07093      -15.49453        4.23397
C          2.26909      -16.56258        4.35465
C          1.67282      -16.79213        5.73784
O          1.45203      -15.98034        6.61369
C          1.53579      -18.22492        5.75985
C          1.21889      -19.14779        6.70870
S          1.33378      -20.73902        6.10079
C          1.79894      -20.18722        4.52571
C          1.83269      -18.82021        4.50359
C          2.09049      -17.78900        3.53442
C          1.96067      -17.87773        2.19100
C          1.76252      -19.12868        1.54217
N          1.62576      -20.15820        1.02698
C          1.93194      -16.73027        1.34706
N          1.88993      -15.80360        0.64921
Cl         0.77933      -18.89363        8.34379
H         12.65728        8.30762        3.43069
H         12.09461        2.83162        5.80203
H          8.89505        1.80862        5.67046
H          8.22836       -4.40262        3.02272
H          9.97743      -13.82713        0.26743
H          4.79808      -17.35399        2.72329
H          3.07119      -14.74529        5.03092
H          2.00790      -20.91134        3.74900
