139

C         13.72564      -10.15407        2.12612
C         14.84963      -10.87178        2.43607
S         15.25197      -10.65239        4.10693
C         13.91727       -9.62080        4.36719
Cl        13.67786       -8.92674        5.91503
C         13.18722       -9.44394        3.23106
C         12.01407       -8.68314        2.88492
O         11.20693       -8.15908        3.62438
C         12.00246       -8.78716        1.36118
C         12.91885       -9.91528        0.95691
C         12.89454      -10.63708       -0.18799
C         13.79437      -11.73466       -0.41529
N         14.51047      -12.59936       -0.59477
C         11.93103      -10.40983       -1.20559
N         11.13302      -10.20761       -2.02593
C         11.45378       -7.85989        0.55117
C         10.73644       -6.71553        0.98676
C          9.40088       -6.59186        1.29980
C          8.94118       -5.23636        1.53800
C         10.06726       -4.41967        1.75554
S         11.45821       -5.17756        1.01508
C          9.98079       -3.17096        2.43903
C         11.18844       -2.31655        2.72664
C         11.13533       -0.90674        2.68627
C         12.26106       -0.09927        2.94285
C         13.50672       -0.67267        3.19656
C         13.59171       -2.06255        3.23578
C         12.45042       -2.85821        3.03857
C         14.72593        0.16395        3.45491
C          8.69549       -2.75846        2.90189
C          7.56821       -3.42076        2.39324
C          7.62644       -4.66720        1.68341
C          6.37119       -5.41670        1.17950
C          5.04339       -4.97241        1.36583
C          3.89060       -5.66970        0.96333
C          3.99684       -6.91113        0.36527
C          5.27457       -7.38294        0.10738
C          6.41450       -6.62501        0.45386
C          2.76803       -7.66552       -0.02816
S          6.21550       -2.42134        2.74293
C          6.92012       -1.62644        4.06014
C          8.28813       -1.77492        3.92148
C          6.05503       -0.91339        5.03821
C          6.27203       -0.82965        6.45006
O          7.34180       -1.62587        6.81347
C          8.34195       -1.29148        7.76012
C          5.32294       -0.15878        7.36562
O          5.76765       -0.04176        8.67795
C          5.32758        1.12159        9.38948
C          4.02542        0.36284        6.93564
C          3.88059        0.30711        5.51587
C          4.85508       -0.29299        4.61000
N          4.38561       -0.13948        3.35997
O          3.19695        0.51960        3.44713
N          2.88235        0.77320        4.74558
C          2.89954        0.98842        7.74314
C          2.42020        0.80402        9.03392
C          1.57254        1.89231        9.57954
C          1.16303        2.71445        8.52115
S          1.87454        2.15557        7.05829
C          0.27501        3.82743        8.66844
C         -0.18669        4.65481        7.46758
C         -1.48034        5.20505        7.33819
C         -1.89029        5.94459        6.20426
C         -1.04411        6.10092        5.10818
C          0.22201        5.54094        5.18506
C          0.64868        4.90122        6.35777
C         -1.47132        6.79355        3.84871
C         -0.11874        4.18598        9.99217
C          0.34119        3.41893       11.08038
C          1.13764        2.22485       10.92181
C          1.55296        1.35991       12.11832
C          1.73611       -0.03482       12.02385
C          2.15794       -0.84319       13.10459
C          2.35341       -0.30165       14.37102
C          2.11265        1.05599       14.52849
C          1.76395        1.86015       13.42386
C          2.74973       -1.14303       15.54842
S         -0.24364        4.14923       12.56019
C         -0.86398        5.53069       11.80553
C         -0.94492        5.28280       10.45657
C         -1.30468        6.64650       12.56940
C         -1.31556        7.91275       12.12139
C         -2.23619        8.85958       12.87913
O         -2.61081        8.78863       14.03228
C         -2.61760        9.78526       11.84613
C         -3.53355       10.78658       11.74736
S         -3.56562       11.45535       10.17734
C         -2.31274       10.39588        9.61670
C         -1.89860        9.58352       10.63716
C         -0.91087        8.55266       10.83438
C          0.23710        8.38759       10.12947
C          0.49525        9.11701        8.93153
N          0.68582        9.71772        7.96048
C          1.30562        7.56836       10.59556
N          2.19603        6.93155       10.97942
Cl        -4.60400       11.37514       12.94716
H         15.48155      -11.50363        1.82417
H         11.59602       -7.90942       -0.52370
H          8.76916       -7.46801        1.33041
H         10.20270       -0.39702        2.45107
H         12.15072        0.98336        2.93013
H         14.54745       -2.54646        3.42739
H         12.58562       -3.93114        3.13810
H         14.53603        1.22608        3.26818
H         15.54783       -0.14358        2.79888
H         15.04510        0.05435        4.49679
H          4.78865       -4.03812        1.82763
H          2.91772       -5.21658        1.14025
H          5.41150       -8.34518       -0.37743
H          7.34160       -7.04193        0.08802
H          2.26029       -7.15143       -0.85077
H          2.08290       -7.74396        0.82226
H          3.01073       -8.68096       -0.35507
H          8.99565       -1.26167        4.55999
H          8.09195       -1.71949        8.73303
H          8.57607       -0.22661        7.81945
H          9.26591       -1.80017        7.43606
H          4.57296        0.82479       10.11946
H          4.97514        1.92778        8.73619
H          6.13403        1.54805        9.98464
H          2.80717       -0.00334        9.63370
H         -2.23328        5.05780        8.10725
H         -2.89145        6.37099        6.17807
H          0.90219        5.59347        4.33661
H          1.68268        4.57636        6.34229
H         -2.30690        7.47622        4.02896
H         -1.77164        6.05799        3.09511
H         -0.64532        7.38965        3.44286
H          1.53452       -0.56025       11.09688
H          2.31542       -1.90693       12.93798
H          2.20431        1.51595       15.51163
H          1.66700        2.91244       13.66030
H          3.23972       -2.06997       15.23291
H          1.86975       -1.39871       16.14744
H          3.46082       -0.60360       16.18523
H         -1.47264        5.96369        9.80997
H         -1.72887        6.42996       13.55149
H         -1.98557       10.45990        8.58650
