70

C          0.30329        1.09531       -1.61304
C         -0.67735        2.02640       -1.84414
S         -0.47521        3.38887       -0.79618
C          0.90295        2.70361       -0.06245
Cl         1.70651        3.56755        1.18018
C          1.20278        1.48360       -0.59033
C          2.22686        0.50715       -0.33756
O          3.15362        0.59087        0.44167
C          1.85799       -0.63166       -1.29980
C          0.67939       -0.19271       -2.14951
C          0.12071       -0.80944       -3.22020
C         -0.98229       -0.24798       -3.92735
N         -1.88281        0.20789       -4.50337
C          0.59164       -2.04111       -3.75198
N          0.97756       -3.04515       -4.19029
C          2.47507       -1.82543       -1.27513
C          3.55802       -2.17112       -0.41376
C          4.91282       -2.05914       -0.66325
C          5.69070       -2.58155        0.41533
C          4.93286       -3.10305        1.41835
S          3.22663       -2.94955        1.08776
C          5.71330       -3.65287        2.48055
C          7.07561       -3.51802        2.25958
S          7.39151       -2.72322        0.75214
C          8.21596       -3.94355        3.13208
C          9.42384       -4.34264        2.53841
C         10.50392       -4.75210        3.31091
C         10.42236       -4.78215        4.71047
C          9.22208       -4.37990        5.33707
N          9.11948       -4.37338        6.69076
C          7.95243       -4.01562        7.25331
C          6.88388       -3.62870        6.49324
N          6.95024       -3.59183        5.14893
C          8.10685       -3.96732        4.54158
C         11.63860       -5.22889        5.45214
C         12.96322       -5.02295        5.09548
C         13.86415       -5.59568        6.04070
C         13.23563       -6.27521        7.03635
S         11.50884       -6.18450        6.88510
C         14.13984       -6.90823        7.94087
C         15.45583       -6.75152        7.54410
S         15.59048       -5.63014        6.23006
C         16.61195       -7.27962        8.19584
C         17.74782       -7.67368        7.59646
C         18.97996       -7.67417        8.48960
O         19.04236       -7.82000        9.69430
C         20.02088       -7.35526        7.54828
C         21.33505       -7.01616        7.64749
S         22.00649       -6.65017        6.12130
C         20.51176       -6.96444        5.30157
C         19.55740       -7.34708        6.20393
C         18.17638       -7.75164        6.17322
C         17.49842       -8.28508        5.13344
C         18.03865       -8.30176        3.81661
N         18.48416       -8.28971        2.74551
C         16.24049       -8.93750        5.30266
N         15.23387       -9.49754        5.43796
Cl        22.30272       -6.89144        9.05475
H         -1.50276        2.03489       -2.54191
H          2.17102       -2.64374       -1.91510
H          5.33692       -1.63157       -1.56295
H          5.28102       -4.11315        3.36025
H          9.54446       -4.35311        1.45703
H         11.41226       -5.06157        2.79716
H          7.90968       -4.05554        8.33487
H          5.94052       -3.33529        6.93719
H         13.28531       -4.48078        4.21528
H         13.82562       -7.48558        8.80211
H         16.57342       -7.26771        9.28663
H         20.45790       -6.83549        4.22810
