71

C          1.36282        0.32557       -3.46663
C          0.31423        0.99502       -4.03902
S         -1.04595        1.01116       -2.96713
C         -0.20419        0.13003       -1.77485
Cl        -0.97754       -0.23520       -0.29099
C          1.06471       -0.16930       -2.17095
C          2.17139       -0.85662       -1.56509
O          2.17849       -1.50426       -0.53845
C          3.30118       -0.60930       -2.56680
C          2.71780       -0.01571       -3.82536
C          3.28597        0.09932       -5.05238
C          2.58295        0.65314       -6.15900
N          2.00795        1.10696       -7.06224
C          4.60118       -0.35467       -5.34237
N          5.67626       -0.72337       -5.57208
C          4.59928       -0.75532       -2.24740
C          5.08074       -1.16858       -0.97402
C          5.34870       -2.44727       -0.52694
C          5.99047       -2.42668        0.74886
C          6.18679       -1.16757        1.22991
S          5.50272        0.04073        0.17958
C          6.92852       -1.14339        2.44925
C          7.31018       -2.41415        2.84363
S          6.62198       -3.63187        1.83030
C          8.15494       -2.80951        3.97865
C          9.03340       -3.91424        3.99001
F          9.15013       -4.67685        2.88912
C          9.84782       -4.27664        5.08892
F         10.58997       -5.38788        4.94313
C          9.90760       -3.55870        6.29847
C          9.04483       -2.43230        6.33045
C          8.18020       -2.06096        5.18297
N          7.49979       -0.95082        5.53035
N          7.93398       -0.70174        6.76920
N          8.83937       -1.52535        7.30630
C          7.46563        0.45015        7.50294
C         10.76521       -3.88627        7.44215
C         10.49908       -3.71132        8.78714
C         11.59140       -4.12972        9.59822
C         12.66629       -4.55416        8.88106
S         12.33398       -4.55620        7.17509
C         13.79176       -4.87830        9.69941
C         13.54262       -4.62103       11.03677
S         11.87375       -4.23452       11.30397
C         14.43766       -4.80159       12.13734
C         14.45953       -4.05698       13.25711
C         15.05175       -4.73562       14.48562
O         15.88453       -5.61889       14.53459
C         14.28584       -4.13482       15.54803
C         14.15767       -4.34941       16.88618
S         12.97120       -3.33349       17.57656
C         12.63286       -2.56784       16.06019
C         13.44050       -3.08883       15.08723
C         13.68188       -2.86202       13.68825
C         13.44513       -1.72838       12.98979
C         12.65908       -0.66977       13.52495
N         11.99521        0.17441       13.96458
C         14.02623       -1.49195       11.70957
N         14.52725       -1.27472       10.68631
Cl        14.99042       -5.47222       17.87481
H          0.22326        1.48886       -4.99756
H          5.39045       -0.48022       -2.93515
H          5.14527       -3.35104       -1.08804
H          7.19815       -0.23246        2.96979
H          8.28925        1.16430        7.57884
H          7.14669        0.12429        8.49617
H          6.62358        0.90179        6.97239
H          9.57657       -3.30339        9.18246
H         14.73700       -5.23803        9.30993
H         15.07004       -5.68953       12.08203
H         11.87217       -1.79963       16.00869
