153

C          6.99377       -4.59887        7.80899
C          6.57182       -5.63791        8.67338
C          6.26214       -5.30184       10.11101
C          6.37258       -6.95273        8.17339
C          5.78187       -8.04406        9.02705
C          6.70600       -7.24613        6.84606
C          7.13054       -6.20752        6.03658
C          7.25679       -4.88087        6.47532
C          7.56412       -4.03235        5.28538
C          8.13721       -2.80631        5.27192
C          8.46813       -2.12144        6.46111
N          8.75760       -1.54888        7.43643
C          8.49039       -2.16068        4.05259
N          8.76265       -1.63867        3.04717
C          7.25284       -4.87150        4.10952
C          7.35014       -6.29048        4.58435
O          7.61507       -7.28877        3.95222
C          6.67749       -4.49975        2.95390
C          6.13135       -5.42885        2.02707
C          6.71054       -6.01697        0.92943
C          5.86630       -6.95790        0.20925
C          4.65848       -7.12214        0.90641
S          4.48647       -5.83683        2.07845
C          3.72597       -8.15812        0.60121
C          2.54269       -8.43579        1.50336
C          1.28650       -8.85552        1.02592
C          0.20661       -9.14417        1.87980
C          0.30421       -8.92385        3.25213
C          1.52095       -8.47837        3.75823
C          2.62205       -8.29134        2.90570
C         -0.87317       -9.16685        4.14814
C          3.92775       -8.90850       -0.60035
C          5.03668       -8.60655       -1.40799
C          6.07249       -7.70718       -0.99620
C          7.34369       -7.52033       -1.80731
C          7.36830       -7.53618       -3.21757
C          8.54530       -7.40368       -3.97241
C          9.76444       -7.17431       -3.34739
C          9.78321       -7.11590       -1.95735
C          8.60715       -7.32964       -1.21215
C         11.00284       -6.97252       -4.16587
S          4.92175       -9.49708       -2.89376
C          3.46732      -10.26060       -2.50867
C          3.18591      -10.02154       -1.18090
C          2.77974      -11.07827       -3.51122
C          2.69468      -10.78253       -4.89088
F          3.28022       -9.66823       -5.36434
C          2.00320      -11.57556       -5.84159
F          2.01686      -11.13033       -7.11009
C          1.30856      -12.76127       -5.52950
C          1.37379      -13.09637       -4.15021
C          2.09624      -12.26289       -3.15683
N          1.96620      -12.85213       -1.95406
N          1.25643      -13.94808       -2.23040
N          0.85711      -14.15041       -3.48845
C          0.93260      -14.88726       -1.18412
C          0.61979      -13.63632       -6.48475
C         -0.43406      -14.50161       -6.29078
C         -0.70850      -15.40821       -7.39495
C          0.15685      -15.13000       -8.46629
S          1.07992      -13.69976       -8.11263
C          0.20094      -15.91569       -9.65945
C          1.23373      -15.65458      -10.75033
C          2.55598      -15.24792      -10.46251
C          3.50068      -14.92991      -11.45733
C          3.20941      -15.13371      -12.80134
C          1.93761      -15.59939      -13.12567
C          0.96238      -15.79378      -12.12594
C          4.20441      -14.80183      -13.87499
C         -0.72078      -17.00694       -9.77278
C         -1.58552      -17.28869       -8.69924
C         -1.62667      -16.50361       -7.50260
C         -2.59407      -16.80851       -6.36263
C         -2.94446      -18.12004       -5.97522
C         -3.88147      -18.40465       -4.96158
C         -4.47396      -17.38004       -4.23140
C         -4.11416      -16.07121       -4.54437
C         -3.22797      -15.79747       -5.60836
C         -5.43097      -17.67613       -3.11354
S         -2.55206      -18.68207       -9.08365
C         -1.74762      -19.02461      -10.53987
C         -0.94934      -17.95272      -10.85462
C         -2.04501      -20.24626      -11.21299
C         -1.30437      -20.88618      -12.12609
C         -1.95739      -22.08751      -12.75676
O         -2.94521      -22.68406      -12.38253
C         -1.17324      -22.38531      -13.95815
C         -0.12198      -21.47354      -14.10433
C          0.65491      -21.54082      -15.25245
C          0.45914      -22.59868      -16.16868
C         -0.54224      -23.57660      -15.92817
C         -1.39426      -23.43928      -14.82831
C         -0.65945      -24.81798      -16.77080
C          1.37569      -22.70017      -17.35727
C         -0.03344      -20.68244      -12.83927
C          1.15592      -20.23933      -12.34088
C          1.33571      -19.99410      -10.94927
N          1.53907      -19.85910       -9.81394
C          2.33144      -20.10477      -13.10687
N          3.31525      -19.97917      -13.73279
H          7.05908       -3.58849        8.20361
H          6.78133       -4.38974       10.42401
H          6.60081       -6.09993       10.77966
H          5.18584       -5.15363       10.24086
H          6.50437       -8.38120        9.77477
H          5.48789       -8.90752        8.41949
H          4.87306       -7.68912        9.52543
H          6.57426       -8.24066        6.42843
H          6.48340       -3.45449        2.73276
H          7.72925       -5.76962        0.67314
H          1.10250       -8.96921       -0.03795
H         -0.71929       -9.52482        1.45349
H          1.63560       -8.27369        4.82048
H          3.55760       -8.00948        3.38251
H         -1.13416      -10.22990        4.15385
H         -1.73628       -8.58732        3.80385
H         -0.66359       -8.86491        5.18000
H          6.46291       -7.65739       -3.80123
H          8.48709       -7.47263       -5.05690
H         10.71442       -6.92077       -1.42983
H          8.72528       -7.35075       -0.13302
H         11.11453       -7.78412       -4.89294
H         11.90106       -6.96305       -3.54040
H         10.94740       -6.01942       -4.70190
H          2.38367      -10.54102       -0.67395
H          0.48478      -14.33621       -0.35326
H          1.85719      -15.37556       -0.86696
H          0.22488      -15.62731       -1.56498
H         -0.94080      -14.54640       -5.33635
H          2.89835      -15.14198       -9.43648
H          4.46601      -14.52388      -11.15938
H          1.68005      -15.78361      -14.16682
H         -0.03567      -16.03792      -12.47396
H          5.20723      -14.64670      -13.46185
H          3.90579      -13.88400      -14.39268
H          4.27350      -15.61533      -14.60475
H         -2.49993      -18.98543       -6.45699
H         -4.13442      -19.44297       -4.75421
H         -4.53129      -15.24314       -3.97436
H         -3.04969      -14.74787       -5.82682
H         -5.84749      -18.68610       -3.20082
H         -6.27465      -16.97775       -3.12985
H         -4.92311      -17.59755       -2.14688
H         -0.45705      -17.90855      -11.81050
H         -3.00352      -20.69603      -10.93841
H          1.43866      -20.81881      -15.45487
H         -2.18460      -24.15355      -14.62002
H         -0.54896      -24.59575      -17.83486
H         -1.63754      -25.29336      -16.64061
H          0.11043      -25.53633      -16.46828
H          2.03285      -21.82727      -17.43418
H          0.79198      -22.74520      -18.28173
H          2.00722      -23.58991      -17.27487
