107

C          2.40783       -3.22325        8.34294
C          2.29856       -2.87721        9.71062
C          2.11777       -1.42205       10.05821
C          2.45226       -3.86523       10.72112
C          2.55900       -3.51812       12.18208
C          2.66234       -5.19846       10.35694
C          2.76855       -5.49204        9.01187
C          2.65937       -4.53724        7.98958
C          2.93092       -5.22883        6.69100
C          2.29519       -4.91717        5.53582
C          1.54933       -3.71156        5.37395
N          0.95293       -2.72317        5.24281
C          2.16499       -5.83122        4.44933
N          1.98314       -6.54800        3.55640
C          3.65550       -6.45108        7.06415
C          3.22823       -6.77306        8.46772
O          3.32969       -7.82386        9.06483
C          4.79323       -7.08460        6.73191
C          5.72540       -6.87018        5.67800
C          7.10949       -7.13758        5.72286
C          7.60023       -7.42459        4.42609
C          6.62056       -7.22910        3.48885
S          5.23419       -6.53621        4.05999
C          6.94691       -7.96629        2.33950
C          8.13429       -8.62756        2.53793
C          8.71093       -8.14566        3.79663
C          9.98837       -8.21565        4.21068
C         10.99109       -8.81940        3.40231
N         11.81020       -9.28635        2.72920
C         10.40295       -7.57767        5.41017
N         10.72437       -7.03815        6.38898
C          8.29827       -9.69454        1.60732
C          7.20596       -9.76246        0.73734
S          6.08317       -8.43655        1.02437
C          6.78811      -10.77015       -0.21350
C          6.93516      -12.14624       -0.27108
C          5.90289      -12.73508       -1.11190
N          5.71683      -14.06987       -1.28352
C          6.70388      -14.79262       -0.69569
C          6.68536      -16.23309       -1.03721
O          5.71128      -16.79200       -1.52451
C          7.92984      -16.98899       -0.83095
C          8.94175      -16.46649       -0.13669
C          8.86366      -15.11864        0.47481
O          9.74967      -14.75622        1.23806
C          7.73217      -14.24101        0.07796
N          7.85399      -12.90013        0.40818
C          5.12596      -11.80220       -1.75589
S          5.84048      -10.26542       -1.57624
C          3.93386      -12.00206       -2.53499
C          2.98373      -13.00985       -2.36041
C          1.94527      -12.88557       -3.30068
C          2.13690      -11.79624       -4.11900
S          3.51108      -10.92660       -3.83124
C          1.07284      -11.71104       -5.02933
C          0.21732      -12.76378       -4.80517
C          0.71200      -13.56610       -3.68532
C          0.14540      -14.64812       -3.12282
C         -1.06317      -15.20084       -3.62976
N         -2.05112      -15.62568       -4.06098
C          0.70117      -15.27632       -1.97328
N          1.12751      -15.77735       -1.01636
C         -0.86753      -12.73303       -5.69723
C         -0.83827      -11.58253       -6.48977
S          0.62083      -10.66919       -6.23667
C         -1.76808      -11.12336       -7.45649
C         -3.09813      -11.23905       -7.33929
C         -3.85376      -11.17671       -8.62816
O         -3.51083      -10.66963       -9.67694
C         -5.07335      -11.96118       -8.39395
C         -5.18085      -12.32543       -7.04571
C         -6.23656      -13.14514       -6.67101
C         -7.17458      -13.57797       -7.63941
C         -7.02174      -13.20760       -9.00018
C         -5.95353      -12.38267       -9.37449
C         -7.92373      -13.70614      -10.09784
C         -8.31696      -14.45295       -7.18983
C         -4.03525      -11.71676       -6.30613
C         -4.00084      -11.44847       -4.97753
C         -2.98714      -10.63459       -4.38137
N         -2.18849       -9.97801       -3.86413
C         -5.01289      -11.88339       -4.07200
N         -5.83045      -12.23415       -3.32945
H          2.34665       -2.43612        7.59620
H          1.72063       -0.85963        9.20628
H          3.08054       -0.98749       10.34285
H          1.40084       -1.29572       10.87410
H          1.85950       -2.73196       12.47229
H          3.58227       -3.19313       12.39947
H          2.33785       -4.38882       12.80943
H          2.82472       -5.97766       11.09728
H          5.11900       -7.87945        7.40956
H          7.63157       -7.35372        6.64888
H          9.08309      -10.44287        1.62714
H          7.96906      -17.98077       -1.26920
H          9.86335      -17.01677        0.01893
H          3.06803      -13.77099       -1.59246
H         -1.66560      -13.46136       -5.75696
H         -1.34766      -10.74700       -8.39169
H         -6.35952      -13.48725       -5.64708
H         -5.79009      -12.09945      -10.41076
H         -8.80001      -14.23989       -9.72434
H         -7.36679      -14.39052      -10.74720
H         -8.28560      -12.86391      -10.69688
H         -8.34624      -14.55085       -6.09927
H         -8.21640      -15.45595       -7.61568
H         -9.27303      -14.01525       -7.49509
