89

C          3.03653        0.34494        0.64580
C          4.30786        0.88916        0.94720
C          4.50480        2.37978        0.82496
C          5.39124        0.03749        1.28882
C          6.77963        0.57455        1.51280
C          5.18369       -1.34318        1.37366
C          3.92589       -1.83631        1.07317
C          2.84098       -1.02857        0.70916
C          1.68894       -1.92088        0.38672
C          0.38103       -1.57530        0.39004
C         -0.06620       -0.24381        0.64024
N         -0.43178        0.83980        0.83494
C         -0.65723       -2.53770        0.21694
N         -1.49655       -3.32575        0.06891
C          2.25387       -3.28549        0.25370
C          3.57557       -3.25792        0.96539
O          4.23516       -4.17986        1.39505
C          1.84217       -4.31884       -0.50266
C          2.54398       -5.56153       -0.73042
C          3.77487       -5.76472       -1.25177
C          4.20278       -7.16274       -1.35563
C          3.30514       -8.08216       -0.93869
Si         1.73320       -7.22925       -0.34482
C          3.46355       -9.53838       -0.87767
C          4.00098      -10.22746        0.22352
C          4.13977      -11.66491        0.23310
N          4.69084      -12.25232        1.31387
C          5.06625      -11.50513        2.38119
C          4.91351      -10.14540        2.37486
N          4.38739       -9.50197        1.29953
C          5.28635       -9.33081        3.48938
N          5.60302       -8.71475        4.42220
C          5.59888      -12.24021        3.49200
N          6.02327      -12.83478        4.39282
C          3.72960      -12.50216       -0.83729
C          3.16622      -11.82507       -1.96590
C          3.04298      -10.31940       -1.98731
N          2.50783       -9.85400       -3.13003
S          2.17175      -11.16109       -4.08127
N          2.68261      -12.38066       -3.09253
C          3.85353      -13.98609       -0.85497
C          3.99962      -14.81688       -1.91737
C          4.09780      -16.24705       -1.63333
C          4.00915      -16.59850       -0.33528
Si         3.78654      -15.06943        0.73298
C          4.25939      -17.89853        0.22896
C          3.61261      -19.03487       -0.06336
C          4.25817      -20.34564        0.28356
O          5.12570      -20.55728        1.10482
C          3.67384      -21.32181       -0.65716
C          2.69998      -20.70693       -1.45431
C          2.13182      -21.42823       -2.49275
C          2.47760      -22.78314       -2.67215
C          3.41816      -23.40370       -1.80857
C          4.03866      -22.65092       -0.80011
C          3.72002      -24.87571       -1.89967
C          1.79197      -23.55101       -3.77284
C          2.47272      -19.33315       -0.93385
C          1.29711      -18.66202       -1.00633
C          0.97868      -17.56082       -0.16060
N          0.63164      -16.70426        0.54218
C          0.21631      -19.08931       -1.82300
N         -0.66576      -19.42735       -2.49769
H          2.24606        1.02122        0.33349
H          3.54655        2.91001        0.82958
H          5.02395        2.61322       -0.10983
H          5.08385        2.76824        1.66852
H          6.79291        1.27384        2.35333
H          7.13790        1.07667        0.60799
H          7.48744       -0.23002        1.74087
H          5.98938       -2.03059        1.61844
H          0.91670       -4.24539       -1.07110
H          4.44307       -4.97064       -1.56477
H          5.19138       -7.39565       -1.73299
H          1.39688       -7.44051        1.08506
H          0.55274       -7.49100       -1.20539
H          4.08101      -14.49054       -2.94801
H          4.31422      -16.93833       -2.44027
H          4.88702      -14.91077        1.71371
H          2.48397      -14.92958        1.42195
H          5.13976      -17.95204        0.87546
H          1.41648      -20.97787       -3.17280
H          4.78111      -23.08600       -0.13713
H          3.82109      -25.20131       -2.93858
H          2.91758      -25.44494       -1.41907
H          4.66258      -25.11869       -1.39786
H          1.19175      -22.88989       -4.40817
H          1.12307      -24.30403       -3.34572
H          2.52790      -24.03288       -4.42312
