98

C          3.49554        0.19748       11.02688
C          4.41375        0.76432       11.94109
C          4.25149        2.21658       12.31312
C          5.50772        0.00137       12.42915
C          6.55933        0.59565       13.32769
C          5.69099       -1.31008       11.97514
C          4.78836       -1.81720       11.05706
C          3.67610       -1.10592       10.58842
C          2.97842       -1.94217        9.57131
C          1.69301       -1.81833        9.16704
C          0.82984       -0.79630        9.65524
N          0.12726        0.03826       10.05669
C          1.08746       -2.75378        8.27794
N          0.59387       -3.51851        7.55935
C          3.93346       -3.01143        9.21231
C          4.94484       -3.07781       10.31890
O          5.74469       -3.95602       10.56589
C          4.12859       -3.59656        8.01948
C          5.32078       -4.34487        7.64725
C          6.12896       -4.00746        6.62831
C          7.33871       -4.69942        6.25181
C          7.99025       -4.13735        5.22063
C          7.36020       -2.93276        4.71093
S          5.87614       -2.60996        5.61539
C          7.78754       -2.14585        3.70383
C          8.93303       -2.33997        2.83580
C          9.02008       -1.44414        1.83634
C          7.95436       -0.46171        1.83597
S          6.96838       -0.65999        3.25933
C          7.75443        0.47082        0.88468
C          6.65918        1.46097        0.81904
C          6.81642        2.70318        0.23689
N          5.83999        3.63060        0.14979
C          4.63362        3.29971        0.63168
N          4.35518        2.13329        1.22468
C          5.36662        1.23451        1.26056
C          3.52291        4.24490        0.48035
C          3.35741        5.10889       -0.53307
C          2.32777        6.12462       -0.60425
C          2.64239        7.12609       -1.44516
C          3.94871        6.95115       -2.06167
S          4.43243        5.27500       -1.89937
C          4.76697        7.91052       -2.52997
C          4.48856        9.33055       -2.57910
C          5.58415       10.08320       -2.75581
C          6.80582        9.31181       -2.85179
S          6.44904        7.61450       -2.98440
C          8.03295        9.85033       -2.77910
C          9.29847        9.13759       -2.76226
C         10.53642        9.64794       -2.67074
C         11.66373        8.69426       -2.37284
O         11.68177        7.48782       -2.50209
C         12.75087        9.52356       -1.82662
C         12.38044       10.87319       -1.82236
C         13.23635       11.79020       -1.22911
C         14.49569       11.37353       -0.74402
C         14.88238       10.01336       -0.84336
C         13.97522        9.07394       -1.35889
C         16.24628        9.51874       -0.43977
C         15.41853       12.42170       -0.17576
C         11.09015       11.00559       -2.56188
C         10.71874       12.11610       -3.24588
C          9.70739       12.11140       -4.24388
N          8.88700       12.15925       -5.07083
C         11.37824       13.37133       -3.10184
N         11.89635       14.40115       -2.97275
H          2.69591        0.82179       10.63851
H          3.29747        2.61839       11.95558
H          5.05527        2.80674       11.86088
H          4.26645        2.34564       13.39898
H          6.11776        1.23595       14.09568
H          7.26779        1.17871       12.73063
H          7.11539       -0.18877       13.85294
H          6.54937       -1.90469       12.27706
H          3.46413       -3.38080        7.18474
H          5.57721       -5.19044        8.28313
H          7.68252       -5.58348        6.77145
H          8.91672       -4.52665        4.82368
H          9.63834       -3.14810        2.96793
H          9.79973       -1.45451        1.08641
H          8.45651        0.52682        0.05352
H          7.75600        3.02025       -0.20414
H          5.05887        0.27303        1.66100
H          2.83301        4.24560        1.31815
H          1.43362        6.09727        0.00231
H          2.02894        8.00231       -1.59307
H          3.49882        9.74187       -2.44584
H          5.57374       11.16357       -2.78231
H          8.07293       10.92596       -2.65490
H          9.21330        8.04761       -2.73499
H         12.97112       12.83868       -1.13523
H         14.22486        8.01716       -1.41465
H         16.89135       10.30987       -0.05028
H         16.75310        9.09000       -1.31145
H         16.15601        8.75142        0.33525
H         14.90571       13.38087       -0.04441
H         16.26346       12.58381       -0.85237
H         15.78449       12.11967        0.81032
