107

C         -5.77117       -7.44675       -2.25564
C         -6.19093       -8.23478       -3.35478
C         -7.48383       -7.88519       -4.04812
C         -5.38386       -9.30526       -3.82378
C         -5.72841      -10.06896       -5.07466
C         -4.21830       -9.64430       -3.13098
C         -3.85861       -8.87011       -2.04317
C         -4.58979       -7.76044       -1.59776
C         -3.81324       -7.11239       -0.49917
C         -4.29212       -6.28477        0.45733
C         -5.65617       -5.87611        0.50367
N         -6.76768       -5.54495        0.53908
C         -3.47661       -5.81798        1.53088
N         -2.80223       -5.42998        2.39149
C         -2.45648       -7.70413       -0.56545
C         -2.61628       -9.01147       -1.27604
O         -1.93189      -10.00900       -1.20837
C         -1.26703       -7.12830       -0.32406
C         -0.01554       -7.71255       -0.67804
C          0.74615       -7.52580       -1.83937
C          2.00550       -8.16306       -1.73875
C          2.13966       -8.78923       -0.52162
S          0.81189       -8.71867        0.47042
C          3.42428       -9.35551       -0.43951
C          4.09851       -9.13877       -1.61507
C          3.24638       -8.34315       -2.50538
C          3.54720       -7.86162       -3.72956
C          4.80812       -8.10826       -4.33873
N          5.83469       -8.30074       -4.83383
C          2.62431       -7.07027       -4.46659
N          1.87218       -6.41683       -5.06222
C          5.37244       -9.76053       -1.59341
C          5.61871      -10.40410       -0.36969
S          4.29969      -10.10540        0.74137
C          6.78802      -11.19995        0.09288
C          6.71372      -12.26836        1.02487
C          7.87847      -12.94161        1.53495
N          7.72167      -13.86210        2.51808
C          6.48014      -14.20882        2.94264
C          5.37148      -13.63002        2.39787
N          5.49289      -12.67194        1.44819
C          4.03461      -13.97436        2.77802
N          2.95967      -14.27330        3.09867
C          6.41622      -15.21315        3.96042
N          6.33861      -16.02526        4.78685
C          9.18107      -12.68076        1.04013
C          9.29489      -11.65142        0.06071
C          8.08458      -10.88456       -0.40265
N          8.40096       -9.92147       -1.28650
S         10.02465      -10.00734       -1.56917
N         10.41881      -11.24906       -0.55851
C         10.40878      -13.41770        1.43919
C         11.73798      -12.97538        1.51569
C         12.61104      -14.01084        1.91017
C         11.92642      -15.17265        2.17859
S         10.31167      -15.12025        1.83363
C         12.81337      -16.11145        2.74080
C         14.05988      -15.53838        2.82176
C         14.03097      -14.22751        2.17578
C         15.07817      -13.48114        1.77287
C         16.41393      -13.93347        1.96451
N         17.48767      -14.34593        2.12356
C         14.89676      -12.27425        1.04368
N         14.74646      -11.29153        0.44529
C         14.93604      -16.32523        3.59266
C         14.32540      -17.51400        4.01346
S         12.69357      -17.62773        3.40386
C         14.79662      -18.53747        4.89115
C         16.08635      -18.87768        5.01699
C         16.53432      -19.57618        6.26833
O         15.87019      -20.26342        7.01782
C         17.93712      -19.15053        6.45814
C         18.35147      -18.36882        5.37071
C         19.55547      -17.68918        5.44278
C         20.38629      -17.86812        6.56715
C         19.99854      -18.75399        7.60857
C         18.74118      -19.38071        7.55945
C         20.92161      -19.11248        8.74338
C         21.69258      -17.11695        6.60500
C         17.30096      -18.43943        4.32910
C         17.50532      -18.39871        2.99360
C         16.50383      -18.78446        2.05384
N         15.70250      -19.10440        1.27964
C         18.76605      -18.07154        2.43134
N         19.80359      -17.80612        1.97589
H         -6.37759       -6.59204       -1.96911
H         -8.11267       -7.24762       -3.41773
H         -8.06527       -8.78937       -4.25665
H         -7.28200       -7.35827       -4.98519
H         -6.66941      -10.61107       -4.95041
H         -4.95094      -10.80042       -5.32236
H         -5.80555       -9.38267       -5.92486
H         -3.57489      -10.45905       -3.45174
H         -1.20148       -6.12135        0.07623
H          0.39758       -6.92758       -2.67249
H          6.08149       -9.76895       -2.41325
H         12.03493      -11.95552        1.29992
H         15.93410      -16.03300        3.89308
H         14.06901      -18.96546        5.58308
H         19.86718      -17.00881        4.65439
H         18.39579      -20.02661        8.36267
H         21.64327      -18.32272        8.96410
H         21.47089      -20.02483        8.48797
H         20.35475      -19.28936        9.66336
H         21.72118      -16.33016        5.84248
H         22.52702      -17.79971        6.42343
H         21.82353      -16.61498        7.56863
