97

C         -4.38495       -4.95162       -0.96004
C         -4.91505       -5.54949       -2.12888
C         -6.09014       -4.89385       -2.81098
C         -4.31052       -6.70990       -2.68044
C         -4.75004       -7.27912       -4.00366
C         -3.22242       -7.29775       -2.02682
C         -2.73816       -6.68727       -0.88276
C         -3.28310       -5.51934       -0.33401
C         -2.41930       -5.09885        0.80773
C         -2.76339       -4.27593        1.82650
C         -4.03562       -3.63769        1.90341
N         -5.07003       -3.11481        1.95892
C         -1.89355       -4.03131        2.92807
N         -1.17534       -3.81831        3.81526
C         -1.17048       -5.88579        0.68295
C         -1.51030       -7.07038       -0.17407
O         -0.93602       -8.13261       -0.27883
C          0.08663       -5.53255        1.00365
C          1.23371       -6.26960        0.59209
C          1.98955       -6.12319       -0.57558
C          3.07077       -7.03069       -0.60304
C          3.09762       -7.80811        0.53182
S          1.90355       -7.48327        1.63945
C          4.18207       -8.70337        0.44324
C          4.84642       -8.49463       -0.74422
C          4.18841       -7.40961       -1.47378
C          4.53892       -6.87641       -2.65892
C          5.67152       -7.33558       -3.38751
N          6.59915       -7.70797       -3.97924
C          3.79583       -5.80974       -3.24250
N          3.19078       -4.94122       -3.71265
C          5.93026       -9.38784       -0.89495
C          6.03610      -10.24717        0.20359
S          4.80450       -9.90829        1.39297
C          6.99596      -11.32989        0.44594
N          6.87533      -12.00279        1.58272
C          7.76183      -12.97533        1.74846
N          8.71204      -13.32113        0.88227
C          8.73738      -12.56507       -0.21266
N          7.91066      -11.55986       -0.49603
C          7.67034      -13.74432        2.98831
C          8.01907      -15.07505        3.23260
C          7.75670      -15.42819        4.57321
C          7.25562      -14.36247        5.28838
S          7.05566      -12.96628        4.42127
C          6.99941      -14.77185        6.61124
C          7.31418      -16.10445        6.72529
C          7.85370      -16.59021        5.45511
C          8.36388      -17.80778        5.18619
C          8.44392      -18.81033        6.19188
N          8.50030      -19.59757        7.04393
C          8.87722      -18.13767        3.90279
N          9.29426      -18.40811        2.85472
C          6.96711      -16.60408        7.99371
C          6.50729      -15.59024        8.84122
S          6.40944      -14.06784        7.99345
C          6.05933      -15.64783       10.19432
C          6.49722      -16.53551       11.09875
C          5.61390      -16.81073       12.28148
O          4.77053      -16.08799       12.76839
C          5.91330      -18.20582       12.66179
C          6.96988      -18.70580       11.88671
C          7.29546      -20.04857       11.98295
C          6.61253      -20.86873       12.90609
C          5.58009      -20.32870       13.71796
C          5.22208      -18.97781       13.57926
C          4.86257      -21.13938       14.76496
C          7.00841      -22.32062       12.99314
C          7.51936      -17.58767       11.07929
C          8.80297      -17.46978       10.65979
C          9.33612      -16.23594       10.17914
N          9.79392      -15.24204        9.79277
C          9.74172      -18.53748       10.73979
N         10.50732      -19.40781       10.79286
H         -4.83253       -4.02813       -0.60405
H         -6.56500       -4.14993       -2.16264
H         -6.85766       -5.63539       -3.05456
H         -5.76351       -4.39259       -3.72722
H         -5.82166       -7.49455       -4.00436
H         -4.22853       -8.21612       -4.22808
H         -4.51613       -6.57147       -4.80648
H         -2.72073       -8.17547       -2.42597
H          0.30091       -4.59564        1.50744
H          1.74039       -5.39882       -1.34146
H          6.61080       -9.44778       -1.73675
H          9.50733      -12.78835       -0.94426
H          8.41716      -15.71740        2.45545
H          7.03423      -17.63949        8.29918
H          5.22818      -14.99279       10.46185
H          8.06092      -20.49256       11.35258
H          4.41576      -18.54164       14.16377
H          5.02120      -22.21451       14.65114
H          3.78261      -20.96840       14.70349
H          5.21373      -20.84633       15.75979
H          7.82982      -22.55623       12.30762
H          6.16287      -22.96008       12.72060
H          7.34706      -22.56170       14.00526
