111

C         -1.52138       -0.65090        0.82291
C         -1.21130        0.31351       -0.16772
C         -2.31295        1.21710       -0.65852
C          0.08971        0.37180       -0.73939
C          0.41104        1.26145       -1.91058
C          1.09200       -0.47317       -0.25874
C          0.75222       -1.38467        0.72137
C         -0.53376       -1.51918        1.25872
C         -0.53081       -2.71627        2.14454
C         -1.36362       -2.97967        3.17692
C         -2.43734       -2.11069        3.52473
N         -3.31019       -1.40442        3.80516
C         -1.17312       -4.10314        4.03998
N         -1.02545       -5.01997        4.72719
C          0.69483       -3.46278        1.78808
C          1.62986       -2.44464        1.22104
O          2.84085       -2.42857        1.19827
C          0.85444       -4.79200        1.71274
C          1.99338       -5.45859        1.17701
C          2.86886       -5.14560        0.13096
C          3.87085       -6.12958       -0.03142
C          3.71973       -7.13068        0.89773
S          2.40246       -6.99749        1.88883
C          4.75619       -8.06817        0.74834
C          5.58147       -7.69457       -0.28845
C          5.09264       -6.38024       -0.94016
C          6.12114       -5.25351       -0.82926
C          4.66701       -6.58815       -2.39732
C          6.61501       -8.65049       -0.46626
C          6.53851       -9.68627        0.47855
S          5.15253       -9.47419        1.51264
C          7.36689      -10.90322        0.65079
C          7.69566      -11.49762        1.89639
C          8.43811      -12.73786        2.00047
N          8.72261      -13.24556        3.22545
C          8.28773      -12.58407        4.32052
C          7.56252      -11.42643        4.22110
N          7.28905      -10.87371        3.02490
F          7.10118      -10.81350        5.31987
F          8.60514      -13.08070        5.52440
C          8.87697      -13.44785        0.85712
C          8.62700      -12.83427       -0.41225
C          7.84370      -11.55815       -0.51509
N          7.65300      -11.17066       -1.79044
S          8.40824      -12.26144       -2.76571
N          9.03402      -13.26161       -1.62152
C          9.54834      -14.77469        0.91999
C         10.37604      -15.33166        1.90519
C         10.81674      -16.63443        1.55549
C         10.28398      -17.02801        0.34865
S          9.23754      -15.95344       -0.33712
C         10.69041      -18.34510        0.05208
C         11.46114      -18.82343        1.08691
C         11.70605      -17.73907        2.15576
C         11.24925      -18.17728        3.54642
C         13.17676      -17.30637        2.16723
C         11.72955      -20.20181        0.91025
C         11.23745      -20.67841       -0.30937
S         10.40310      -19.41600       -1.18069
C         11.23834      -21.98635       -0.87947
C         12.18600      -22.90111       -0.66304
C         11.88292      -24.34648       -0.91248
O         11.04466      -24.81454       -1.65336
C         12.75153      -25.08506        0.02782
C         13.58446      -24.18996        0.71622
C         14.32760      -24.64573        1.79072
C         14.31589      -26.01897        2.10933
C         13.56829      -26.92986        1.31502
C         12.74560      -26.44453        0.28389
C         13.69513      -28.42038        1.48827
C         15.15499      -26.47879        3.27300
C         13.45371      -22.86411        0.07485
C         14.44758      -21.95723       -0.06600
C         14.37205      -20.86953       -0.99120
N         14.35116      -20.00416       -1.75528
C         15.69279      -22.07771        0.61726
N         16.68693      -22.17930        1.19312
H         -2.54295       -0.71807        1.18933
H         -3.11171        1.30253        0.08566
H         -2.73706        0.82079       -1.58559
H         -1.94025        2.23089       -0.83274
H          0.18275        2.30600       -1.68638
H         -0.15567        0.93604       -2.78933
H          1.47473        1.20898       -2.16938
H          2.09583       -0.47359       -0.67554
H          0.05277       -5.44722        2.04702
H          2.80735       -4.24744       -0.46979
H          6.43633       -5.08922        0.20748
H          5.70852       -4.30650       -1.19865
H          7.01943       -5.47695       -1.41630
H          3.91855       -7.38365       -2.49367
H          5.52171       -6.86341       -3.02590
H          4.22553       -5.67444       -2.81349
H          7.36330       -8.60134       -1.24872
H         10.64801      -14.82423        2.82312
H         10.19852      -18.48887        3.55343
H         11.35598      -17.36271        4.27232
H         11.84463      -19.02440        3.90823
H         13.51229      -16.99393        1.17041
H         13.83008      -18.12531        2.48889
H         13.33431      -16.45851        2.84376
H         12.22780      -20.81953        1.64773
H         10.34898      -22.27953       -1.43951
H         14.91890      -23.96494        2.39851
H         12.12243      -27.10853       -0.30967
H         13.73939      -28.70861        2.54073
H         14.60363      -28.76512        0.98305
H         12.83951      -28.94449        1.05043
H         15.40349      -25.64069        3.93421
H         16.08662      -26.92430        2.91439
H         14.61094      -27.20038        3.88934
