85

C         -6.04365        6.35558       -6.58354
C         -6.59103        5.31966       -5.83219
C         -7.02010        5.57163       -4.49264
N         -7.37171        5.87045       -3.42900
C         -6.66307        4.15248       -6.61992
C         -6.24211        4.34687       -7.89351
S         -5.67912        5.88896       -8.20607
S         -6.38820        2.99856       -8.89376
C         -7.01224        2.13384       -7.58943
C         -7.08771        2.83411       -6.43627
C         -7.53439        2.06068       -5.34510
C         -7.58956        2.46845       -3.97433
N         -7.61318        2.74972       -2.85156
C         -7.86035        0.75969       -5.76550
S         -7.53981        0.55798       -7.46858
C         -8.37903       -0.36550       -5.00011
C         -8.17449       -1.73425       -5.22256
C         -8.81937       -2.52201       -4.23833
C         -9.47626       -1.73129       -3.32759
S         -9.42691       -0.10829       -3.63508
C        -10.05266       -2.54752       -2.33902
C         -9.78253       -3.86424       -2.62424
C         -8.99904       -3.92782       -3.86350
C         -8.56386       -5.02413       -4.51475
C         -7.80994       -4.92705       -5.71508
N         -7.19001       -4.83529       -6.69178
C         -8.84086       -6.33210       -4.03735
N         -9.05791       -7.40500       -3.64535
C        -10.32584       -4.72345       -1.64077
C        -10.97300       -3.99829       -0.63299
S        -10.91558       -2.28550       -0.95376
C        -11.63269       -4.50555        0.55564
C        -12.24755       -5.72473        0.75606
C        -12.75227       -5.88141        2.10517
N        -13.37082       -7.01457        2.54255
C        -13.50205       -7.94806        1.55878
C        -14.17325       -9.20468        1.96329
O        -14.35267       -9.51969        3.13238
C        -14.65233      -10.09609        0.89133
C        -14.32348       -9.88905       -0.38417
C        -13.44517       -8.77209       -0.78851
O        -13.08811       -8.68495       -1.95618
C        -13.07820       -7.76997        0.24137
N        -12.39931       -6.67053       -0.21759
C        -12.60494       -4.74340        2.87623
S        -11.73766       -3.55421        1.99549
C        -13.07630       -4.47397        4.22193
C        -13.45874       -3.24542        4.77979
C        -13.93032       -3.40544        6.10426
C        -13.87841       -4.72326        6.48975
S        -13.24112       -5.76460        5.37518
C        -14.41173       -4.84699        7.78376
C        -14.78768       -3.60675        8.23998
C        -14.49974       -2.61198        7.19960
C        -14.71465       -1.28202        7.23841
C        -14.37752       -0.43675        6.14800
N        -14.10363        0.25457        5.25460
C        -15.28976       -0.65589        8.37737
N        -15.76034       -0.15330        9.31187
C        -15.33241       -3.68960        9.54429
C        -15.34162       -5.01040       10.01385
S        -14.74082       -6.10474        8.80308
C        -15.80940       -5.50857       11.29951
C        -15.37531       -6.61650       12.04749
C        -14.26958       -7.43221       11.65128
N        -13.35169       -8.05240       11.30899
C        -16.13192       -6.73895       13.23123
C        -17.04107       -5.75110       13.38565
S        -17.09623       -4.66635       12.12230
S        -17.91146       -5.81896       14.82618
C        -17.06085       -7.21275       15.24075
C        -16.15732       -7.62063       14.31589
C        -15.50354       -8.81665       14.67212
C        -14.55438       -9.62203       13.96592
N        -13.80727      -10.34931       13.45813
C        -15.94694       -9.23157       15.92792
S        -17.14699       -8.18463       16.59720
H         -5.85666        7.37613       -6.27148
H         -7.57142       -2.11352       -6.03912
H        -10.25165       -5.80542       -1.62995
H        -15.27451      -10.92897        1.20049
H        -14.67167      -10.54009       -1.17905
H        -13.42587       -2.31193        4.23000
H        -15.69679       -2.85494       10.13186
H        -15.64113      -10.10897       16.48501
