71

O         -1.56558        1.37144       -3.69020
C         -1.39492        1.53514       -2.33295
N         -1.62223        0.42670       -1.64522
C         -1.96966       -0.50891       -2.60166
C         -1.93035        0.07245       -3.84424
C         -2.32157       -1.87776       -2.30439
O         -2.64939       -2.69772       -3.15693
C         -1.02296        2.78646       -1.72763
C         -0.84653        3.06025       -0.36922
C         -0.50411        4.41816       -0.16742
C         -0.42259        5.09391       -1.36389
S         -0.75079        4.18655       -2.71314
C         -0.09828        6.44119       -1.11190
C          0.00528        6.63743        0.24332
C         -0.21184        5.35256        0.92632
C         -0.13442        5.08445        2.24458
C          0.17894        6.09737        3.18940
N          0.42630        6.93646        3.95279
C         -0.35142        3.77410        2.75696
N         -0.52958        2.70196        3.16840
C          0.26399        8.00117        0.53964
C          0.34868        8.79339       -0.62048
S          0.20987        7.77494       -2.03921
C          0.57247       10.26594       -0.77339
C          1.33490       11.04195        0.13344
C          1.52550       12.46894       -0.02693
N          2.23337       13.14087        0.90822
C          2.79280       12.48808        1.95305
C          2.62861       11.13843        2.09346
N          1.90521       10.41746        1.19254
C          3.18993       10.40876        3.18888
N          3.66436        9.84997        4.08852
C          3.54690       13.29605        2.86778
N          4.16061       13.93535        3.61411
C          0.99789       13.20900       -1.11626
C          0.21125       12.46795       -2.04167
C         -0.01814       10.98426       -1.86213
N         -0.82718       10.49175       -2.81692
S         -1.19686       11.70466       -3.86527
N         -0.39265       12.94831       -3.14356
C          1.20983       14.67066       -1.34997
C          0.38845       15.62679       -1.97501
C          0.98247       16.91390       -1.99594
C          2.21756       16.89406       -1.39713
S          2.71710       15.41491       -0.85958
C          2.77095       18.18731       -1.42587
C          1.89106       19.03934       -2.05291
C          0.70123       18.28029       -2.45690
C         -0.39145       18.73533       -3.10052
C         -0.52234       20.10186       -3.47666
N         -0.62789       21.21660       -3.77863
C         -1.47397       17.87507       -3.43121
N         -2.35768       17.17305       -3.69704
C          2.40731       20.35478       -2.10634
C          3.66359       20.42342       -1.49894
S          4.17977       18.88303       -0.89633
C          4.50464       21.57993       -1.34408
N          4.17254       22.78834       -1.77048
C          5.25070       23.58336       -1.43073
C          6.20279       22.81867       -0.80418
O          5.74203       21.54260       -0.73970
C          5.32953       24.99753       -1.71233
O          6.28549       25.70289       -1.40418
H         -2.12110       -0.26663       -4.85259
H         -2.27909       -2.14771       -1.23648
H         -0.97825        2.29969        0.39277
H          0.36616        8.41182        1.53694
H         -0.58321       15.38380       -2.38873
H          1.93095       21.22533       -2.54352
H          7.17957       23.00825       -0.38198
H          4.45467       25.41545       -2.23695
