69

O         -0.13339        1.98644        4.09875
C         -0.27431        1.91902        2.73049
N         -0.47758        0.68722        2.29012
C         -0.43857       -0.09690        3.42594
C         -0.23599        0.70013        4.52457
C         -0.60640       -1.53064        3.42040
O         -0.20730       -2.26824        4.31614
C         -0.21765        3.06693        1.86647
C         -0.32672        3.08375        0.47485
C         -0.22089        4.40084       -0.02274
C         -0.03563        5.30562        0.99641
S          0.00964        4.65465        2.52177
C          0.09373        6.59468        0.44488
C          0.01325        6.51106       -0.92248
C         -0.22967        5.11470       -1.30610
C         -0.45528        4.61943       -2.53211
C         -0.45743        5.44250       -3.68818
N         -0.45577        6.11712       -4.63044
C         -0.72790        3.22523       -2.73746
N         -0.95434        2.10465       -2.90279
C          0.20266        7.77801       -1.52277
C          0.39323        8.79267       -0.56886
S          0.27615        8.12311        1.04404
C          0.61881       10.25595       -0.75524
C          1.36633       11.08672        0.11773
C          1.52511       12.51463       -0.08993
N          2.23061       13.24505        0.80744
C          2.77250       12.61675        1.87557
C          2.64499       11.26520        2.05592
N          1.96198       10.50552        1.18028
F          3.20664       10.65720        3.10982
F          3.46129       13.35201        2.75871
C          0.98159       13.18020       -1.21556
C          0.23609       12.37265       -2.12948
C          0.04950       10.89667       -1.89206
N         -0.69912       10.31787       -2.84887
S         -1.08444       11.46972       -3.96114
N         -0.38431       12.77762       -3.25222
C          1.15004       14.63993       -1.46832
C          1.24617       15.70402       -0.55705
C          1.42583       16.94825       -1.21036
C          1.49910       16.78835       -2.57096
S          1.34828       15.23227       -3.10425
C          1.75499       18.03617       -3.17067
C          1.83974       18.99602       -2.18769
C          1.59944       18.36723       -0.88470
C          1.52240       18.95866        0.31964
C          1.68078       20.36283        0.47251
N          1.79903       21.51077        0.58997
C          1.24349       18.22141        1.49726
N          1.00662       17.61425        2.45957
C          2.15260       20.26083       -2.73281
C          2.29314       20.18449       -4.11989
S          2.02357       18.57971       -4.71507
C          2.62678       21.25355       -5.02176
N          2.83428       22.49986       -4.62601
C          3.11773       23.18878       -5.78874
C          3.08020       22.32299       -6.85299
O          2.76825       21.08784       -6.38147
C          3.39829       24.60436       -5.83756
O          3.65948       25.21299       -6.87090
H         -0.16753        0.53128        5.58972
H         -1.13827       -1.93062        2.54104
H         -0.46772        2.17763       -0.10359
H          0.20680        7.96829       -2.58940
H          1.20537       15.55820        0.51610
H          2.29369       21.18797       -2.18918
H          3.23226       22.41603       -7.91903
H          3.35915       25.11911       -4.86342
