71

O         -3.54123        1.58541       -0.96393
C         -2.30248        1.64896       -0.36510
N         -1.89777        0.48298        0.11345
C         -2.92725       -0.38949       -0.18421
C         -3.92397        0.28802       -0.84117
C         -2.92104       -1.79134        0.16317
O         -3.83498       -2.56530       -0.10545
C         -1.53275        2.85949       -0.26479
C         -0.27608        3.02587        0.32160
C          0.15089        4.37056        0.22823
C         -0.78989        5.14666       -0.40995
S         -2.15145        4.34354       -0.91104
C         -0.32797        6.47481       -0.46858
C          0.90830        6.55164        0.12885
C          1.29036        5.21560        0.60469
C          2.42353        4.84592        1.23364
C          3.45577        5.77838        1.52536
N          4.30955        6.53066        1.75397
C          2.65344        3.49925        1.62807
N          2.83827        2.39732        1.94622
C          1.40785        7.87705        0.09923
C          0.51475        8.74870       -0.53644
S         -0.91890        7.90301       -1.06030
C          0.65832       10.17689       -0.76286
C          1.33136       11.11753       -0.00848
C          1.24377       12.45741       -0.56254
N          1.81615       13.54977        0.01996
C          2.48197       13.22908        1.17239
C          3.13645       14.36916        1.86061
O          3.09071       15.51634        1.43500
C          3.86470       14.09655        3.11379
C          3.94465       12.86806        3.62496
C          3.31120       11.70803        2.96813
O          3.41331       10.60148        3.48211
C          2.56682       11.94016        1.70624
N          1.99583       10.82552        1.14765
C          0.50882       12.51431       -1.72984
S         -0.05016       10.93684       -2.13799
C          0.20301       13.65811       -2.57207
C          0.97123       14.80891       -2.78335
C          0.33978       15.69564       -3.68894
C         -0.86805       15.19474       -4.11484
S         -1.28926       13.72760       -3.47478
C         -1.44942       16.09916       -5.02353
C         -0.61237       17.18104       -5.17926
C          0.57121       16.99457       -4.33276
C          1.62133       17.82439       -4.17937
C          1.70087       19.06580       -4.87223
N          1.75960       20.07485       -5.43909
C          2.70244       17.50485       -3.31274
N          3.58505       17.23857       -2.60897
C         -1.14590       18.11219       -6.09926
C         -2.37603       17.67403       -6.59447
S         -2.84638       16.15030       -5.91562
C         -3.22384       18.33346       -7.55051
N         -2.92842       19.49578       -8.11042
C         -4.00525       19.76768       -8.93242
C         -4.91600       18.74447       -8.84501
O         -4.43065       17.82201       -7.97397
C         -4.11929       20.96012       -9.73903
O         -5.08413       21.21179      -10.45463
H         -4.88797        0.02258       -1.25132
H         -2.02098       -2.13248        0.70068
H          0.25980        2.20142        0.77896
H          2.35776        8.20665        0.50530
H          4.32961       14.95077        3.59527
H          4.47878       12.66591        4.54757
H          1.93244       14.96513       -2.30715
H         -0.69712       19.04822       -6.41340
H         -5.87712       18.53511       -9.29268
H         -3.26235       21.65014       -9.66881
