93

C         -1.59655       -8.22430       -8.68457
C         -1.18842       -9.47590       -7.95934
O         -0.65384       -9.59168       -6.87690
C         -1.47894      -10.57776       -8.88854
C         -1.78194      -10.06891      -10.16307
C         -1.62998       -8.58384      -10.12271
C         -1.42017       -7.76446      -11.17607
C         -1.39843       -8.23642      -12.51918
N         -1.39468       -8.62573      -13.61148
C         -1.14640       -6.37183      -11.02376
N         -0.93936       -5.24113      -10.88720
C         -2.19509      -10.95468      -11.14924
C         -2.25996      -12.32481      -10.84663
C         -1.92375      -12.80083       -9.56923
C         -1.52708      -11.92519       -8.56589
Cl        -2.03739      -14.48489       -9.23711
C         -2.07911       -7.09651       -8.13407
C         -2.39068       -6.87792       -6.75804
C         -2.28595       -5.66648       -6.07406
C         -2.88613       -5.75799       -4.79091
C         -3.40790       -7.00435       -4.58397
S         -3.20820       -8.10484       -5.82980
C         -4.03880       -7.18999       -3.37983
C         -4.03059       -6.13064       -2.52924
S         -3.24641       -4.85393       -3.36168
C         -4.64289       -6.57293       -1.34113
C         -4.93826       -7.93456       -1.52720
N         -4.67772       -8.27139       -2.85117
C         -5.09820       -9.44928       -3.56857
C         -5.33793       -8.83787       -0.46636
C         -5.16602      -10.19617       -0.26134
C         -5.26986      -10.55279        1.14635
N         -5.00820      -11.80402        1.62479
C         -4.72430      -12.68962        0.62296
C         -4.50594      -14.09315        1.05224
O         -4.45306      -14.43227        2.22780
C         -4.36293      -15.12156        0.00241
C         -4.33634      -14.80592       -1.29265
C         -4.43834      -13.40747       -1.75180
O         -4.38021      -13.16504       -2.95131
C         -4.64990      -12.35378       -0.72967
N         -4.81423      -11.09111       -1.22624
C         -5.52443       -9.44695        1.93321
S         -6.10378       -8.17497        0.92855
C         -5.32920       -9.19726        3.34294
C         -5.09127       -7.93646        3.88999
C         -4.71766       -8.04533        5.24697
C         -4.73799       -9.34879        5.65767
S         -5.24382      -10.47142        4.51179
C         -4.28507       -9.55507        6.93904
C         -3.91265       -8.44365        7.63239
S         -4.17661       -7.11213        6.59278
C         -3.47275       -8.88047        8.89548
C         -3.52690      -10.27662        8.86440
N         -4.11256      -10.69383        7.66794
C         -4.47341      -12.02843        7.24943
C         -3.14524      -11.23058        9.84801
C         -2.13523      -11.04368       10.71104
C         -2.16649      -11.85208       11.97092
O         -2.67980      -12.93447       12.15727
C         -1.52746      -10.99440       12.98481
C         -1.00463       -9.83095       12.38682
C         -1.15376       -9.97355       10.91222
C         -0.35466       -9.41126        9.97018
C          0.60320       -8.40573       10.28321
N          1.36493       -7.57296       10.55240
C         -0.35147       -9.85690        8.61376
N         -0.29308      -10.22741        7.51461
C         -0.50656       -8.82563       13.19991
C         -0.49664       -9.02725       14.58833
C         -0.98732      -10.21719       15.15172
C         -1.52167      -11.21926       14.35073
Cl        -0.95322      -10.42279       16.85896
H         -2.49585      -10.63469      -12.14143
H         -2.58743      -13.02344      -11.61521
H         -1.29240      -12.26834       -7.56300
H         -2.39617       -6.27414       -8.76675
H         -1.84584       -4.76560       -6.48321
H         -4.76308       -5.99174       -0.43652
H         -5.94593       -9.90857       -3.05785
H         -4.25291      -10.13716       -3.64237
H         -5.46092       -9.16191       -4.55712
H         -4.27988      -16.14825        0.34377
H         -4.23622      -15.56116       -2.06529
H         -5.09436       -7.00174        3.34378
H         -3.13244       -8.24938        9.70342
H         -4.30869      -12.75064        8.04846
H         -3.85726      -12.30931        6.39262
H         -5.53855      -12.03866        7.00158
H         -3.79398      -12.09333        9.99687
H         -0.14180       -7.88002       12.81045
H         -0.10694       -8.24287       15.23548
H         -1.94184      -12.12853       14.76804
