93

C          3.36993        0.93005       -3.49025
C          2.12631        0.60155       -3.07815
C          1.72697        0.74806       -1.71638
N          1.38998        0.86295       -0.61161
C          1.16389        0.02011       -3.94846
N          0.38085       -0.46275       -4.65629
C          3.97699        0.81225       -4.83382
C          5.38096        0.73829       -4.77257
C          6.13806        0.65391       -5.94314
C          5.49318        0.64800       -7.18101
C          4.10217        0.73671       -7.24859
C          3.34140        0.82720       -6.07899
C          5.88989        0.81613       -3.39585
S          4.63149        1.43603       -2.36439
C          7.09246        0.37526       -2.98776
C          7.51301        0.35984       -1.62545
C          8.21640        1.32491       -0.89796
C          8.45359        0.89972        0.43049
C          7.90942       -0.34384        0.65683
S          7.20055       -1.05798       -0.66274
C          8.10989       -0.69152        2.00668
C          8.79825        0.31626        2.63950
C          9.07774        1.38340        1.67302
C          9.76758        2.52210        1.86887
C         10.32942        2.85077        3.13955
N         10.78287        3.11043        4.17170
C          9.99369        3.44477        0.81147
N         10.18619        4.19006       -0.05882
C          9.01553        0.01367        4.00550
C          8.47444       -1.23271        4.34007
S          7.67582       -1.96086        2.97433
C          8.49594       -1.91124        5.62101
C          8.50120       -3.26968        5.87978
C          8.47442       -3.56694        7.29188
N          8.43140       -4.83744        7.79365
C          8.48393       -5.77753        6.81395
C          8.44335       -7.20235        7.25774
O          8.48798       -7.56430        8.42289
C          8.25752       -8.19983        6.15847
C          9.07405       -7.93723        5.12329
C          8.73893       -6.62247        4.48932
O          8.70870       -6.50938        3.27434
C          8.55867       -5.49160        5.44657
N          8.55234       -4.23619        4.91358
C          8.56600       -2.43582        8.08099
S          8.51511       -1.02363        7.10319
C          8.75055       -2.37001        9.51519
C          8.32335       -1.40462       10.43467
C          8.69672       -1.76372       11.75517
C          9.37362       -2.96086       11.76946
S          9.68387       -3.61992       10.29274
C          9.67481       -3.32083       13.09149
C          9.18547       -2.35325       13.93072
C          8.57282       -1.28355       13.13615
C          8.09981       -0.10101       13.57416
C          7.68390        0.91131       12.66500
N          7.36830        1.73555       11.91154
C          8.03676        0.21599       14.96111
N          7.96786        0.46128       16.09384
C          9.46988       -2.66725       15.27211
C         10.28379       -3.80278       15.38189
S         10.47282       -4.57420       13.82632
C         10.95896       -4.38791       16.50137
C         11.49738       -3.68590       17.51625
C         12.26466       -4.24328       18.64058
C         12.96149       -3.25692       19.36907
C         12.79999       -1.90326       18.79278
C         13.52728       -0.77911       18.96693
C         14.66617       -0.72520       19.80762
N         15.59714       -0.68220       20.49862
C         13.22448        0.42690       18.25759
N         12.99387        1.40422       17.67428
S         11.47463       -1.95249       17.65867
C         13.64810       -3.62091       20.52921
C         13.67375       -4.95810       20.93429
C         13.00957       -5.93495       20.19302
C         12.29752       -5.58094       19.04651
H          7.22286        0.61551       -5.91294
H          6.07577        0.59191       -8.09821
H          3.60783        0.74841       -8.21865
H          2.26513        0.92867       -6.18358
H          7.77949       -0.07174       -3.69982
H          8.51164        2.27186       -1.33317
H          9.53985        0.63630        4.72156
H          7.18467       -8.30055        5.97892
H         10.15517       -7.96014        5.28396
H          7.75551       -0.52653       10.14806
H          9.18137       -2.07104       16.12708
H         11.10504       -5.46535       16.46350
H         14.15284       -2.89599       21.15891
H         14.20627       -5.23550       21.84205
H         13.03066       -6.97108       20.52440
H         11.76052       -6.35427       18.50466
