89

C          2.15459       -5.49534       -1.44234
Si         2.77196       -4.13207       -0.34053
C          3.89821       -3.04539       -1.32208
C          3.47775       -4.75354        1.26087
C          4.57985       -5.50618        1.65859
C          4.59173       -5.68950        3.04217
C          5.51582       -6.36642        3.90291
C          6.26935       -7.43286        3.57394
S          6.24150       -8.24174        2.04093
C          7.44600       -9.44115        2.46471
C          7.82786      -10.36899        1.55629
C          7.28723      -10.39338        0.23217
N          6.86085      -10.41835       -0.84693
C          8.77864      -11.38522        1.83295
N          9.55251      -12.22234        2.04789
C          7.86759       -9.21362        3.86725
C          8.80097       -9.93746        4.61612
C          9.08092       -9.57892        5.93807
C          8.43442       -8.49645        6.52622
C          7.50182       -7.76265        5.79509
C          7.21748       -8.11558        4.46914
S          3.22004       -4.88163        3.77787
C          2.66967       -4.33408        2.29051
C          1.54022       -3.54303        1.91608
S          0.30637       -2.86440        2.82361
C         -0.48784       -2.27438        1.39486
C         -1.77304       -1.62677        1.48691
S         -2.89843       -1.72289        0.19348
C         -4.11223       -0.85808        1.05239
C         -5.41186       -0.59696        0.48171
C         -6.23890        0.49566        0.73477
C         -7.41450        0.38532       -0.01764
C         -7.49276       -0.74312       -0.80505
S         -6.13995       -1.71232       -0.64312
C         -8.68049       -0.88090       -1.58830
S         -9.23269       -2.07918       -2.62304
C        -10.73654       -1.21953       -2.90744
C        -11.71384       -1.84515       -3.74454
C        -12.60450       -1.20730       -4.52526
S        -12.71084        0.51207       -4.74494
C        -13.71651        0.39776       -6.17662
C        -13.85033        1.45027       -7.01441
C        -13.22818        2.70729       -6.75058
N        -12.72708        3.73436       -6.54276
C        -14.57766        1.37465       -8.23433
N        -15.17777        1.31750       -9.22380
C        -14.24855       -0.97996       -6.26296
C        -15.29703       -1.45412       -7.05729
C        -15.67686       -2.79840       -6.99154
C        -15.02511       -3.67465       -6.12648
C        -13.99585       -3.21035       -5.30885
C        -13.61175       -1.86578       -5.37127
C        -10.76297       -0.02074       -2.19503
C         -9.58737        0.14244       -1.46457
Si        -8.95764        1.40074       -0.24688
C        -10.04372        1.50577        1.25236
C         -8.69943        3.09476       -0.93142
C         -3.63132       -0.47444        2.28323
F         -4.32349        0.20729        3.15774
C         -2.31604       -0.91012        2.52953
F         -1.68958       -0.65236        3.64702
C          0.23830       -2.56569        0.24104
C          1.38718       -3.28900        0.56939
H          2.98228       -6.09944       -1.82560
H          1.60590       -5.08939       -2.29739
H          1.47886       -6.16003       -0.89500
H          4.70936       -3.62507       -1.77534
H          4.35654       -2.27019       -0.70007
H          3.36013       -2.54485       -2.13321
H          5.32784       -5.89606        0.98224
H          5.57856       -5.96556        4.91114
H          9.34173      -10.78870        4.22048
H          9.81051      -10.15039        6.50868
H          8.65974       -8.22326        7.55467
H          7.01406       -6.92235        6.28022
H         -5.98420        1.30547        1.40901
H        -11.69867       -2.93205       -3.74120
H        -15.86120       -0.81220       -7.72545
H        -16.49424       -3.15971       -7.61270
H        -15.33304       -4.71685       -6.07648
H        -13.52498       -3.90628       -4.62062
H        -11.59665        0.66871       -2.18628
H        -10.29333        0.50767        1.62640
H        -10.98344        2.01574        1.01783
H         -9.55390        2.05536        2.06094
H         -8.03040        3.08054       -1.79745
H         -8.26014        3.76175       -0.18322
H         -9.64700        3.53833       -1.25379
H         -0.07739       -2.29908       -0.76117
