89

C          7.85620        2.27389       -5.55614
C          8.67779        1.61824       -6.40444
C          8.95500        0.22483       -6.25303
N          9.18395       -0.90772       -6.13524
C          9.35644        2.27211       -7.46476
N          9.90879        2.80629       -8.33400
C          7.46053        3.69743       -5.50309
C          6.94540        4.06861       -4.24449
C          6.49955        5.37384       -4.01651
C          6.55542        6.30993       -5.04942
C          7.03966        5.94038       -6.30426
C          7.48516        4.63621       -6.53638
C          6.88123        2.94189       -3.30236
S          7.14406        1.46336       -4.18109
C          6.72377        3.04018       -1.96944
C          6.71601        1.92917       -1.06696
C          6.24064        0.62487       -1.22431
C          6.52700       -0.18165       -0.10709
C          7.11902        0.54904        0.89893
S          7.38074        2.14798        0.53694
C          7.34984       -0.29965        2.00461
C          6.91638       -1.57540        1.70114
C          6.33462       -1.65305        0.28238
C          7.15304       -2.58686       -0.61425
C          4.85705       -2.04687        0.28306
C          7.13539       -2.46452        2.77745
C          7.72110       -1.80974        3.86046
S          7.98935       -0.12385        3.52367
C          8.10213       -2.37029        5.13498
C          8.15754       -1.72704        6.35625
C          8.58210       -2.58688        7.41089
C          8.85495       -3.86884        6.97460
S          8.57965       -4.00860        5.28761
C          9.30147       -4.99610        7.75986
C         10.09985       -6.06027        7.34276
C         10.30898       -6.98553        8.39066
C          9.66300       -6.59704        9.54708
S          8.83754       -5.16138        9.42948
C          9.87739       -7.57189       10.55050
C         10.67088       -8.58110       10.04151
C         11.04323       -8.32187        8.57325
C         12.55368       -8.17178        8.39003
C         10.47303       -9.40206        7.65089
C         10.90565       -9.59305       11.00068
C         10.22232       -9.32855       12.18578
S          9.38903       -7.79939       12.12198
C         10.13169      -10.12344       13.36343
C          9.14659      -11.01530       13.56980
C          9.00047      -11.85883       14.76207
C          7.74876      -12.49756       14.83492
C          6.85797      -12.12868       13.71101
C          5.51789      -12.25904       13.58839
C          4.69981      -12.79022       14.62039
N          4.02729      -13.22182       15.46506
C          4.82393      -11.81327       12.42205
N          4.24300      -11.45706       11.48411
S          7.82520      -11.32163       12.47841
C          7.50895      -13.40668       15.87021
C          8.48920      -13.64175       16.83964
C          9.71767      -12.98756       16.77366
C          9.98027      -12.10071       15.73050
H          6.08605        5.67389       -3.05787
H          6.20218        7.32565       -4.88442
H          7.05966        6.66863       -7.11286
H          7.81847        4.38958       -7.53915
H          6.65540        4.02503       -1.51349
H          5.74652        0.26022       -2.11483
H          6.79906       -2.55233       -1.65130
H          7.08375       -3.62533       -0.27007
H          8.21572       -2.31565       -0.62293
H          4.26036       -1.38512        0.92192
H          4.72052       -3.07027        0.65016
H          4.43442       -1.99343       -0.72742
H          6.87849       -3.51684        2.77273
H          7.89871       -0.68459        6.50003
H          8.68729       -2.26454        8.43983
H         10.50125       -6.15764        6.34141
H         12.80235       -7.90047        7.35761
H         13.07396       -9.10673        8.62762
H         12.96639       -7.39241        9.04198
H          9.38737       -9.50425        7.77048
H         10.91914      -10.37998        7.86401
H         10.66422       -9.16495        6.59798
H         11.49282      -10.48759       10.83238
H         10.90299       -9.96527       14.10936
H          6.58545      -13.97064       15.95165
H          8.29590      -14.34951       17.64373
H         10.47819      -13.18483       17.52597
H         10.95700      -11.62899       15.67973
