81

C         -7.86673       -2.78071       -3.54504
C         -7.57439       -3.85898       -4.53210
O         -6.76151       -4.75429       -4.47597
C         -8.45785       -3.60235       -5.66684
C         -9.19479       -2.44282       -5.46123
C         -8.86973       -1.85687       -4.15630
O         -9.33550       -0.85003       -3.67386
C        -10.08895       -2.00105       -6.41429
C        -10.24447       -2.74037       -7.59114
C         -9.50248       -3.91642       -7.79208
C         -8.60224       -4.34891       -6.81898
F         -7.90880       -5.47494       -7.01607
F        -10.80948       -0.88936       -6.23667
C         -7.40920       -2.55666       -2.30419
C         -6.53904       -3.42336       -1.58039
C         -6.44431       -4.80006       -1.58501
C         -5.50148       -5.32882       -0.65304
C         -4.86716       -4.32257        0.06404
S         -5.44537       -2.77314       -0.41722
C         -3.90555       -4.63731        1.03516
C         -3.58248       -5.97760        1.32974
C         -4.26004       -6.97088        0.63599
C         -5.17590       -6.65729       -0.36279
S         -3.85523       -8.52847        1.19740
C         -2.63192       -7.94877        2.25557
C         -2.63800       -6.56033        2.24823
C         -1.82477       -8.90371        3.05659
C         -1.40014       -8.64573        4.38136
C         -0.66690       -9.62014        5.16774
N         -0.27417       -9.31162        6.42443
C         -0.56999       -8.08919        6.91086
C         -1.27276       -7.17081        6.17236
N         -1.69509       -7.44188        4.91954
F         -1.54252       -5.95918        6.67723
F         -0.13807       -7.78194        8.14164
C         -0.34084      -10.90055        4.67306
C         -0.67780      -11.16692        3.31309
C         -1.42649      -10.15460        2.49289
N         -1.63224      -10.58305        1.23375
S         -1.02443      -12.10523        1.10036
N         -0.38662      -12.27535        2.60719
C          0.33427      -11.94198        5.48119
C          1.34103      -11.82788        6.42793
C          1.77093      -13.08570        6.98061
C          1.04711      -14.13400        6.42755
S         -0.18800      -13.57573        5.38872
C          1.34138      -15.45705        6.74322
C          2.36554      -15.77559        7.64158
C          3.06216      -14.73575        8.24456
C          2.76829      -13.40313        7.92433
S          4.25117      -15.34377        9.33337
C          3.87909      -16.98992        8.98408
C          2.86127      -17.04861        8.05432
C          4.64869      -18.03496        9.57432
C          4.19432      -19.26973        9.83538
C          5.13326      -20.34120       10.27889
O          6.31868      -20.23605       10.50598
C          4.32902      -21.56564       10.34314
C          3.00689      -21.29123       10.01683
C          2.83440      -19.86729        9.73175
O          1.77113      -19.32936        9.50869
C          2.05364      -22.28859        9.98656
C          2.43653      -23.59235       10.29385
C          3.77283      -23.87385       10.62729
C          4.72443      -22.85083       10.64893
F          5.99269      -23.13861       10.95842
F          0.78227      -22.03368        9.65882
H        -10.94622       -2.39978       -8.34881
H         -9.62331       -4.49848       -8.70244
H         -7.74706       -1.66016       -1.78327
H         -7.04718       -5.44231       -2.21431
H         -3.40975       -3.83705        1.58073
H         -5.66537       -7.45588       -0.91592
H         -1.98971       -5.96081        2.87650
H          1.78661      -10.88064        6.70772
H          0.77556      -16.26163        6.27815
H          3.33091      -12.60013        8.39564
H          2.46977      -17.97394        7.65121
H          5.69806      -17.81569        9.77467
H          1.69358      -24.38589       10.27200
H          4.07428      -24.89060       10.86713
