93

S          2.06604        0.46139        5.20872
C          3.04299        0.26617        3.65734
C          2.72853        1.45928        2.74804
C          4.52560        0.25158        4.04051
C          2.54487       -1.05263        3.06374
C          1.43187       -1.56252        3.65071
C          0.88132       -0.76257        4.75259
C         -0.32793       -0.82607        5.36208
C         -1.36263       -1.70715        4.94008
N         -2.22815       -2.39051        4.58549
C         -0.67904        0.04845        6.43621
N         -0.97959        0.75432        7.30708
C          0.89804       -2.83971        3.29852
N          0.48586       -3.88987        3.02371
C          3.18402       -1.76249        1.98831
C          2.95927       -1.66676        0.61142
C          3.81907       -2.52578       -0.11426
C          4.65571       -3.22383        0.72699
S          4.43881       -2.91963        2.34484
C          5.51146       -4.03612       -0.04654
C          5.21022       -3.87509       -1.37738
C          4.12054       -2.89969       -1.50263
C          3.53881       -2.43757       -2.62829
C          3.94417       -2.88226       -3.91622
N          4.27433       -3.24403       -4.96911
C          2.49847       -1.46787       -2.58293
N          1.65861       -0.67274       -2.52723
C          6.04328       -4.68356       -2.19347
C          6.96440       -5.43362       -1.44085
S          6.78923       -5.04058        0.26055
C          8.01409       -6.40833       -1.88159
C          8.45640       -7.52460       -1.12956
C          9.49791       -8.42339       -1.57557
N          9.88511       -9.42340       -0.75072
C          9.27895       -9.60499        0.44918
C          8.27988       -8.77120        0.85591
N          7.86918       -7.75136        0.06677
C          7.62160       -8.88815        2.12152
N          7.10483       -8.99317        3.15434
C          9.74904      -10.70465        1.23649
N         10.11199      -11.58741        1.89444
C         10.14112       -8.30123       -2.83627
C          9.71402       -7.19978       -3.63743
C          8.64641       -6.23500       -3.14675
N          8.41430       -5.24542       -4.02730
S          9.37016       -5.50699       -5.34632
N         10.15564       -6.87821       -4.86622
C         11.20169       -9.23064       -3.35132
C         12.28813       -8.99958       -4.21554
C         13.05474      -10.17350       -4.44807
C         12.53772      -11.24707       -3.76471
S         11.16246      -10.92813       -2.90392
C         13.31928      -12.39190       -4.02733
C         14.33409      -12.05240       -4.89200
C         14.23283      -10.62170       -5.20731
C         15.03624       -9.89395       -6.00627
C         16.15161      -10.47789       -6.67441
N         17.05984      -10.96587       -7.20593
C         14.82158       -8.50434       -6.21476
N         14.64757       -7.36743       -6.37325
C         15.13440      -13.17468       -5.21306
C         14.68168      -14.32498       -4.56072
S         13.29202      -13.98655       -3.56471
C         15.19279      -15.66716       -4.61181
C         14.71492      -16.54005       -5.53735
C         15.31133      -17.88353       -5.49466
C         14.90117      -19.04005       -6.06675
C         13.68776      -19.15373       -6.80013
N         12.68454      -19.27113       -7.37058
C         15.63003      -20.26052       -5.91219
N         16.20938      -21.25869       -5.79353
S         16.73688      -17.83616       -4.45751
C         16.27939      -16.22217       -3.69264
C         15.75341      -16.49580       -2.27976
C         17.53864      -15.35279       -3.64681
C         13.77622      -16.15009       -6.54011
N         13.04277      -15.80762       -7.37078
H          2.97337        2.41122        3.23510
H          1.66969        1.49258        2.46293
H          3.31186        1.41227        1.82153
H          4.80920        1.15403        4.59603
H          5.16127        0.21679        3.14815
H          4.78138       -0.61634        4.65997
H          2.21387       -1.00126        0.19138
H          5.99444       -4.73401       -3.27486
H         12.49403       -8.02687       -4.64743
H         15.98702      -13.18793       -5.88313
H         14.84967      -17.11752       -2.28941
H         15.49813      -15.56113       -1.76784
H         16.50381      -17.00372       -1.66170
H         17.90504      -15.10645       -4.65046
H         18.35190      -15.84939       -3.10360
H         17.34313      -14.40607       -3.12947
