91

C          1.78029       -1.66790       -1.19968
C          0.49993       -1.66865       -1.76558
C          0.33400       -1.37006       -3.11214
C          1.44335       -1.07732       -3.90764
C          2.72163       -1.07435       -3.34758
C          2.89015       -1.36712       -1.99356
O         -0.89026       -1.33754       -3.72157
C         -2.02773       -1.58876       -2.96662
C         -3.28065       -1.45748       -3.78734
C         -2.00830       -1.90632       -1.65462
C         -0.69188       -1.97503       -0.95551
O         -0.58693       -2.25787        0.23290
C         -3.20737       -2.18904       -0.92940
C         -4.03158       -1.31972       -0.20647
C         -5.12527       -2.00564        0.37139
C         -5.09018       -3.35124        0.07756
S         -3.80639       -3.82768       -0.86284
C         -6.20463       -3.98059        0.67647
C         -6.94823       -3.03524        1.33964
C         -6.30085       -1.72752        1.20287
C         -6.69166       -0.54991        1.72667
C         -7.85890       -0.43835        2.53121
N         -8.81549       -0.34446        3.18249
C         -5.96354        0.64911        1.49728
N         -5.37797        1.63141        1.29968
C         -8.09953       -3.60256        1.93304
C         -8.19232       -4.98129        1.69154
S         -6.79539       -5.52707        0.78842
C         -9.24796       -5.94372        2.11921
C         -9.71619       -7.03701        1.35090
C        -10.77102       -7.91713        1.80267
N        -11.18071       -8.91306        0.98384
C        -10.56983       -9.11961       -0.20815
C         -9.55859       -8.30185       -0.62305
N         -9.15662       -7.25399        0.13822
C         -8.85809       -8.48998       -1.85670
N         -8.30090       -8.66446       -2.86030
C        -11.05153      -10.22350       -0.98267
N        -11.42569      -11.10778       -1.63501
C        -11.40751       -7.77844        3.06360
C        -10.96152       -6.68832        3.86800
C         -9.87312       -5.75648        3.38655
N         -9.59663       -4.79193        4.28242
S        -10.59392       -5.00314        5.57876
N        -11.40503       -6.35596        5.09364
C        -12.49457       -8.66690        3.57779
C        -13.58045       -8.37166        4.41802
C        -14.40050       -9.50379        4.64952
C        -13.94572      -10.60310        3.96185
S        -12.50901      -10.37277        3.17127
C        -14.83727      -11.68019        4.16360
C        -15.83983      -11.27621        5.01658
C        -15.61339       -9.87258        5.38716
C        -16.33549       -9.10606        6.22662
C        -17.47566       -9.61741        6.90527
N        -18.39517      -10.04010        7.47059
C        -15.98437       -7.75664        6.49993
N        -15.69795       -6.65078        6.72210
C        -16.76523      -12.32088        5.25759
C        -16.44728      -13.46917        4.52201
S        -14.98254      -13.23648        3.59792
C        -17.14413      -14.71637        4.42379
C        -16.87777      -15.75980        5.23868
O        -17.51294      -16.99252        5.15379
C        -18.50595      -17.17269        4.23174
C        -19.14676      -18.41367        4.22850
C        -20.17805      -18.66404        3.32255
C        -20.56457      -17.67465        2.41774
C        -19.91823      -16.43494        2.41786
C        -18.88616      -16.18695        3.33121
C        -18.19046      -14.88792        3.36931
O        -18.48074      -14.00059        2.57426
C        -15.87258      -15.75709        6.35610
H          1.91574       -1.89651       -0.14464
H          1.31277       -0.84781       -4.96224
H          3.58535       -0.84159       -3.96657
H          3.88634       -1.36049       -1.55668
H         -3.06181       -0.98400       -4.75152
H         -4.02405       -0.82818       -3.28873
H         -3.71278       -2.44092       -3.99451
H         -3.81762       -0.26063       -0.12343
H         -8.84177       -3.05952        2.50494
H        -13.75532       -7.38051        4.81993
H        -17.63839      -12.27268        5.89787
H        -18.84603      -19.18451        4.93375
H        -20.68007      -19.62921        3.32340
H        -21.37006      -17.86943        1.71290
H        -20.22323      -15.66703        1.71006
H        -15.59276      -14.75554        6.69030
H        -14.96874      -16.28997        6.04423
H        -16.28679      -16.27856        7.22705
