92

C          0.13576        2.62337       -2.20134
C          0.04567        1.09634       -2.08397
C          0.18627        0.42312       -3.45157
C         -1.26516        0.69079       -1.39654
C         -2.57652        0.85448       -1.84232
C         -3.65717        0.41850       -1.04700
C         -5.06824        0.57013       -1.47682
C         -6.09350       -0.35644       -1.11297
C         -7.45585       -0.25021       -1.48240
C         -7.95234        0.79197       -2.27234
C         -7.00343        1.75402       -2.68742
N         -7.28076        2.81963       -3.45534
S         -5.85548        3.64045       -3.64926
N         -4.82617        2.69298       -2.76881
C         -5.54182        1.65483       -2.28455
C         -3.34268       -0.19855        0.19212
C         -2.02096       -0.37750        0.63220
C         -0.99127        0.07780       -0.16326
C          0.44079        0.01266        0.02702
C          1.17197       -0.48150        1.08412
C          2.56967       -0.47677        0.99626
C          3.26627        0.03084       -0.13374
C          4.80140        0.11268       -0.21062
C          5.27013       -0.65957       -1.42475
N          5.32438       -0.09776       -2.63995
S          6.01438       -1.25515       -3.63395
N          6.30828       -2.46941       -2.52146
C          5.83269       -2.00118       -1.36067
C          5.93279       -2.80477       -0.08824
C          4.71319       -3.72962        0.02856
C          4.63876       -4.64083        1.11787
C          3.58928       -5.56226        1.26213
C          2.60230       -5.59685        0.29576
C          2.65315       -4.70527       -0.79217
C          3.68452       -3.78610       -0.93320
C          1.46640       -4.93190       -1.72879
C          0.59528       -3.67549       -1.84077
C          1.92971       -5.38974       -3.11784
C          0.74034       -6.06514       -1.00877
C         -0.42791       -6.70767       -1.39744
C         -0.95580       -7.75382       -0.62225
C         -2.20815       -8.44250       -1.01149
C         -2.46557       -9.81288       -0.72685
C         -3.64623      -10.50669       -1.09228
C         -4.70195       -9.90638       -1.78382
C         -4.53046       -8.54037       -2.10925
N         -5.42542       -7.79144       -2.77094
S         -4.76682       -6.27749       -2.90089
N         -3.33261       -6.49991       -2.11098
C         -3.27393       -7.78749       -1.71872
C         -0.22501       -8.13090        0.53604
C          0.96070       -7.48233        0.92876
C          1.43355       -6.44006        0.15593
C          5.91051       -1.86587        1.09299
N          6.46699       -2.19876        2.26558
S          6.29179       -0.84748        3.23656
N          5.57388        0.20681        2.15190
C          5.40881       -0.50161        1.02911
C          2.48463        0.58527       -1.17700
C          1.09095        0.56387       -1.09171
H         -0.65696        3.02211       -2.84518
H          1.09703        2.93613       -2.62480
H          0.03577        3.11111       -1.22356
H         -0.60079        0.75063       -4.14059
H          0.11816       -0.66834       -3.37164
H          1.15076        0.65930       -3.91507
H         -2.74426        1.31415       -2.81074
H         -5.82337       -1.22758       -0.51188
H         -8.15124       -1.01663       -1.13548
H         -8.99254        0.86333       -2.55427
H         -4.13458       -0.55068        0.84865
H         -1.82713       -0.87284        1.57852
H          0.68625       -0.85818        1.97815
H          3.09618       -0.86733        1.86412
H          5.10845        1.16363       -0.28528
H          6.85286       -3.40265       -0.09615
H          5.42085       -4.64375        1.87922
H          3.56766       -6.23472        2.11313
H          3.66903       -3.14855       -1.81164
H          1.16379       -2.83524       -2.25617
H          0.20622       -3.35940       -0.86590
H         -0.26458       -3.84590       -2.49888
H          2.47362       -4.59425       -3.63846
H          1.07732       -5.67202       -3.74781
H          2.59327       -6.26092       -3.05868
H         -0.91041       -6.38263       -2.31394
H         -1.70512      -10.39439       -0.20287
H         -3.73380      -11.56070       -0.82496
H         -5.59959      -10.44343       -2.06369
H         -0.57980       -8.94274        1.16786
H          1.48765       -7.80356        1.82143
H          2.95663        1.03972       -2.04599
