125

C         -3.71749       -1.64882        0.24973
C         -4.66295       -0.70961       -0.17586
C         -4.42436        0.68621       -0.15045
C         -3.22048        1.29252        0.30728
C         -2.22377        0.36538        0.75604
C         -2.48946       -1.12833        0.71560
N         -1.46307       -1.87103        1.15727
S         -0.26722       -0.81150        1.59047
N         -0.99997        0.62809        1.25104
C         -3.03963        2.75779        0.32266
C         -3.95695        3.74856        0.05195
C         -3.47133        5.12171        0.08194
C         -2.22827        5.11965        0.74808
S         -1.56801        3.52034        0.59788
C         -1.62811        6.29487        1.32616
C         -0.37202        6.23852        2.23264
C          0.26641        5.04813        2.64337
C          1.42272        4.98945        3.44743
C          1.98031        6.14223        3.96658
C          1.37740        7.34012        3.63643
C          0.27969        7.37364        2.75413
C          3.15988        6.08906        4.87998
C         -2.23724        7.54692        0.95834
C         -3.26317        7.54440        0.00037
C         -4.02116        6.37839       -0.36473
C         -5.31421        6.45903       -1.22117
C         -5.90300        7.65991       -1.67538
C         -7.07311        7.73816       -2.46226
C         -7.77455        6.59731       -2.80618
C         -7.27251        5.39254       -2.35690
C         -6.06675        5.34207       -1.63093
C         -9.05368        6.65758       -3.57576
S         -3.26851        9.11630       -0.71227
C         -2.55701        9.92259        0.59825
C         -2.08238        8.92374        1.42761
C         -2.45320       11.42194        0.68190
C         -1.74999       12.12370        1.70838
C         -1.64966       13.57230        1.74678
N         -0.97216       14.16021        2.76338
C         -0.36565       13.40618        3.71360
C         -0.46491       12.04195        3.68745
N         -1.15150       11.41060        2.69717
C          0.12384       11.20682        4.68550
N          0.61388       10.54325        5.51536
C          0.37996       14.11573        4.70276
N          1.00454       14.67136        5.52151
C         -2.23084       14.41096        0.76103
C         -2.91873       13.74847       -0.29154
C         -3.05461       12.25110       -0.31911
N         -3.79649       11.85894       -1.37022
S         -4.19982       13.16756       -2.26939
N         -3.49701       14.33669       -1.35609
C         -2.20416       15.90122        0.74393
C         -3.12965       16.80884        0.24782
C         -2.74036       18.20700        0.32500
C         -1.65325       18.31322        1.20619
S         -0.84994       16.77415        1.29443
C         -1.27898       19.54266        1.81950
C         -0.23425       19.60365        2.91909
C          0.65999       20.68443        3.06743
C          1.63028       20.73996        4.08907
C          1.78851       19.68418        4.98498
C          0.94241       18.58669        4.85067
C         -0.06836       18.57183        3.86935
C          2.87911       19.69930        6.01707
C         -1.89969       20.73424        1.33299
C         -2.75910       20.64749        0.22561
C         -3.29459       19.40459       -0.24442
C         -4.38150       19.35000       -1.32055
C         -4.50148       18.29929       -2.25589
C         -5.50866       18.26253       -3.25187
C         -6.43706       19.29508       -3.38107
C         -6.33270       20.36298       -2.49645
C         -5.35300       20.36704       -1.47915
C         -7.47700       19.28875       -4.46676
S         -2.93301       22.23698       -0.45832
C         -2.37877       23.04288        0.93839
C         -1.86710       22.10658        1.81354
C         -2.45709       24.51160        1.03105
C         -3.43484       25.29117        0.35588
C         -3.53290       26.70338        0.43412
C         -2.65992       27.48569        1.20010
C         -1.65314       26.78288        1.90290
C         -1.53826       25.26862        1.82426
N         -0.50507       24.80821        2.55438
S          0.21906       26.11696        3.26688
N         -0.72369       27.35141        2.68665
H         -3.90704       -2.71486        0.22750
H         -5.62523       -1.06851       -0.54365
H         -5.23807        1.31263       -0.51603
H         -4.95630        3.44397       -0.18292
H         -0.07983        4.06548        2.37401
H          1.86155        4.01752        3.66313
H          1.75725        8.27611        4.04101
H          0.00716        8.37738        2.49723
H          3.91192        5.39534        4.49131
H          2.84550        5.76319        5.87588
H          3.63442        7.07247        4.96839
H         -5.50294        8.63399       -1.45180
H         -7.42030        8.71692       -2.78725
H         -7.79402        4.46243       -2.57144
H         -5.77323        4.33296       -1.44005
H         -9.07676        7.53519       -4.22883
H         -9.90203        6.70421       -2.88592
H         -9.16317        5.77301       -4.21232
H         -1.58182        9.18711        2.33830
H         -4.06154       16.49061       -0.20175
H          0.63559       21.52675        2.38031
H          2.27022       21.61725        4.16357
H          1.05554       17.72577        5.50873
H         -0.71984       17.70203        3.86913
H          3.02518       20.70771        6.41940
H          3.82151       19.35613        5.57750
H          2.63509       19.04748        6.86339
H         -3.80287       17.46644       -2.25100
H         -5.55035       17.41402       -3.93286
H         -7.01666       21.20668       -2.57853
H         -5.38329       21.22026       -0.80829
H         -7.81015       18.26914       -4.68962
H         -7.07869       19.73545       -5.38366
H         -8.36680       19.85499       -4.16636
H         -1.43017       22.38782        2.76416
H         -4.17801       24.79073       -0.26758
H         -4.32841       27.19543       -0.12523
H         -2.74250       28.56548        1.25515
