67

C          5.67728        1.53312       -1.47776
N          4.67746        0.72530       -0.82117
C          4.82075       -0.66584       -0.62754
O          5.73410       -1.40773       -0.93040
C          3.57309       -1.03563        0.06897
C          2.87618       -2.05644        0.59100
C          3.24008       -3.46956        0.60438
C          2.91399       -4.37447       -0.43159
C          3.25192       -5.75442       -0.40517
C          3.94084       -6.35828        0.65965
C          4.29222       -5.50380        1.73142
N          4.93632       -5.88383        2.84532
S          5.11006       -4.51938        3.77324
N          4.35861       -3.38785        2.81847
C          3.94399       -4.02685        1.70973
N          1.67917       -1.55744        1.11659
C          0.66119       -2.31563        1.79630
C          1.56400       -0.16472        0.94674
O          0.65591        0.57736        1.25750
C          2.81473        0.17855        0.25402
C          3.48153        1.20967       -0.27132
C          3.02950        2.61043       -0.24927
N          2.28595        2.98793        0.78804
C          1.86211        4.24304        0.75159
N          2.14187        5.12826       -0.19714
C          2.90838        4.66033       -1.18285
C          3.23906        5.57931       -2.28419
C          3.49351        5.21807       -3.54603
C          3.57909        4.05397       -4.45097
O          3.36488        2.89356       -4.18940
N          3.93366        4.64854       -5.67992
C          4.13464        3.87518       -6.87919
C          4.04275        6.03462       -5.57785
C          4.37113        6.91972       -6.67859
C          3.40799        7.47828       -7.54470
C          3.73418        8.36340       -8.60063
C          5.04985        8.77435       -8.88086
C          6.06147        8.24731       -8.04200
N          7.37319        8.51131       -8.14119
S          8.11665        7.65609       -6.92833
N          6.81437        6.89367       -6.23564
C          5.72485        7.29663       -6.91458
C          3.77214        6.40041       -4.32206
C          3.65407        7.56855       -3.43505
O          3.78815        8.73438       -3.74063
N          3.33086        6.98011       -2.19523
C          3.14032        7.76329       -0.99908
N          3.39221        3.41917       -1.24500
H          6.50994        0.91182       -1.81827
H          6.05744        2.27909       -0.77339
H          5.24171        2.02718       -2.34959
H          2.36896       -4.00782       -1.30270
H          2.96427       -6.38080       -1.25212
H          4.18923       -7.41314        0.66971
H          1.08465       -2.77177        2.69506
H          0.26639       -3.08381        1.12664
H         -0.16180       -1.65910        2.09724
H          1.23059        4.57223        1.56998
H          4.07133        2.80587       -6.65756
H          5.12248        4.09074       -7.29574
H          3.35655        4.13019       -7.60418
H          2.35710        7.22714       -7.39577
H          2.92761        8.75269       -9.22292
H          5.28328        9.45847       -9.68784
H          3.38073        8.81384       -1.18768
H          3.79953        7.39147       -0.20920
H          2.09478        7.70146       -0.68484
