81

C          1.70766        2.95059       -3.14253
O          2.99335        2.34543       -3.01781
C          3.17433        1.57948       -1.91046
O          2.28654        1.18516       -1.16851
C          4.63435        1.42764       -1.65030
C          5.51768        1.68501       -2.73848
N          6.18581        1.90716       -3.66372
C          5.00262        1.15976       -0.37560
C          6.34003        1.06724        0.18405
C          7.49529        0.62640       -0.35579
O          7.55771        0.15766       -1.64328
C          8.79733       -0.43894       -2.00447
C          9.95363        0.36652       -1.44663
O          9.93056        0.33084       -0.01487
C          8.69926        0.67661        0.49881
C          8.51650        1.07676        1.77859
C          9.51697        1.19416        2.85726
C          9.86949        0.14901        3.73423
N          9.22509       -1.02666        3.57808
C          9.55775       -2.04538        4.39349
C         10.49692       -1.90477        5.38396
N         11.13723       -0.73839        5.60345
C         10.86261        0.30145        4.78689
C         11.55266        1.51128        5.01553
C         12.53430        1.72825        6.10132
C         13.87147        1.50313        6.11984
O         14.57240        1.02242        5.03594
C         15.85462        0.49640        5.39917
C         16.61139        1.49697        6.25155
O         15.94196        1.69775        7.49033
C         14.57740        1.82172        7.38506
C         13.82281        2.22999        8.42305
C         14.18718        2.63247        9.77002
C         15.11950        2.10024       10.59216
C         15.91397        0.96443       10.28904
N         16.56285        0.01615       10.08794
C         15.30469        2.74201       11.92263
O         14.45889        3.42851       12.47936
O         16.54510        2.47746       12.41031
C         16.83658        3.06433       13.68081
Si        12.00450        2.41020        7.79525
C         11.50055        4.19428        7.74382
C         10.87500        1.35796        8.80262
C         11.24707        2.58374        4.12921
N         11.78359        3.81743        4.14819
S         11.09588        4.67172        2.91047
N         10.03264        3.55045        2.32120
C         10.20874        2.42355        3.03514
Si         6.67879        1.45134        2.05257
C          6.27322        3.19138        2.51239
C          5.81326        0.22568        3.14443
H          1.62813        3.36875       -4.14993
H          1.63832        3.77286       -2.42387
H          0.89594        2.23396       -2.99255
H          4.20353        1.02074        0.35550
H          8.83967       -0.46531       -3.09846
H          8.79935       -1.46944       -1.63397
H          9.91704        1.41149       -1.77980
H         10.90216       -0.06658       -1.77726
H          9.04052       -2.98218        4.22141
H         10.76643       -2.72833        6.03477
H         16.40946        0.29961        4.47687
H         15.71321       -0.45567        5.92575
H         16.71205        2.46737        5.75275
H         17.61514        1.12327        6.48020
H         13.62102        3.48918       10.14457
H         17.89309        2.88507       13.90139
H         16.23415        2.59024       14.46130
H         16.66910        4.14589       13.66259
H         11.73720        4.64991        6.77825
H         12.01991        4.77852        8.50959
H         10.42535        4.30910        7.90899
H         11.02986        0.29406        8.60022
H          9.82441        1.58922        8.60587
H         11.05084        1.51523        9.87247
H          6.80864        3.91197        1.88727
H          6.53722        3.39428        3.55521
H          5.20184        3.38940        2.40210
H          6.39114       -0.69704        3.24813
H          4.83319       -0.04462        2.73840
H          5.65399        0.63478        4.14669
