77

C         -3.22644      -11.65042        6.08714
C         -3.11225      -10.27273        5.85710
C         -3.61499       -9.63666        4.69825
F         -3.45481       -8.30434        4.64565
C         -4.27324      -10.30397        3.64067
C         -4.42142      -11.71429        3.83068
C         -3.88705      -12.38794        5.07951
N         -4.10740      -13.71010        5.11122
S         -4.89432      -14.09357        3.70479
N         -5.00415      -12.59964        2.99896
C         -4.77389       -9.66695        2.41437
C         -5.86317      -10.03233        1.61962
C         -5.91910       -9.25523        0.45125
C         -4.96208       -8.27212        0.42326
S         -3.92360       -8.30598        1.71768
C         -5.04924       -7.60829       -0.81841
C         -6.07891       -8.16200       -1.54728
C         -6.71567       -9.23793       -0.76886
C         -7.19391      -10.34025       -1.38400
C         -6.29445      -11.41888       -1.63442
N         -5.52379      -12.23946       -1.92604
C         -8.33107      -10.22738       -2.22274
N         -9.28966      -10.13651       -2.87792
C         -6.01382       -7.81003       -2.91493
C         -4.80349       -7.15864       -3.17715
S         -4.07180       -6.59435       -1.69516
C         -4.10483       -7.11209       -4.45066
C         -2.74427       -7.01181       -4.68869
C         -2.40387       -7.29397       -6.05826
N         -1.12142       -7.32174       -6.51928
C         -0.20171       -7.16065       -5.53206
C          1.20752       -7.35100       -5.94856
O          1.54137       -7.53786       -7.11181
C          2.24083       -7.33982       -4.89773
C          1.93870       -7.08220       -3.62505
C          0.55490       -6.79917       -3.19145
O          0.34637       -6.50240       -2.02287
C         -0.52379       -6.90918       -4.20241
N         -1.80033       -6.79642       -3.72415
C         -3.49330       -7.64862       -6.83180
S         -4.93962       -7.42494       -5.93873
C         -3.47875       -8.15245       -8.19048
C         -4.42504       -8.01998       -9.21427
C         -3.85716       -8.39596      -10.45986
C         -2.56515       -8.83581      -10.30363
S         -2.08753       -9.05596       -8.74302
C         -1.92312       -8.85221      -11.55185
C         -2.82049       -8.46156      -12.51504
C         -4.13588       -8.28333      -11.89344
C         -5.32855       -8.13030      -12.49702
C         -5.44548       -8.10253      -13.91309
N         -5.54032       -8.08640      -15.06979
C         -6.53275       -8.06801      -11.74307
N         -7.50902       -8.02620      -11.11751
C         -2.17211       -8.22442      -13.74755
C         -0.78544       -8.38334      -13.62907
S         -0.34982       -8.97734      -12.04992
C          0.29305       -8.04848      -14.56499
C          1.51802       -8.75230      -14.64043
C          2.58231       -8.37196      -15.48330
F          3.70015       -9.11233      -15.45259
C          2.54841       -7.26905      -16.33889
C          1.35329       -6.51889      -16.31424
C          0.19530       -6.90245      -15.41200
N         -0.83414       -6.04234      -15.51911
S         -0.40672       -4.90223      -16.64317
N          1.11465       -5.42176      -17.04816
H         -2.83796      -12.12578        6.97980
H         -2.61568       -9.65149        6.60189
H         -6.53195      -10.85118        1.85602
H         -6.64537       -8.22780       -3.68982
H          3.25532       -7.54867       -5.21939
H          2.69738       -7.06615       -2.84959
H         -5.38537       -7.53679       -9.07673
H         -2.64249       -7.84847      -14.64887
H          1.68085       -9.63069      -14.01626
H          3.38765       -7.00608      -16.96874
