118

C          8.79860        7.17911       -2.90850
C          8.36286        5.85514       -2.37142
S          8.37770        5.57410       -0.68336
C          7.68709        3.99873       -0.83505
C          7.41832        3.17105        0.36882
C          7.99182        1.88002        0.43873
C          8.75894        1.12363       -0.52918
C          9.21127       -0.10879       -0.09933
C          9.99671       -1.14056       -0.82818
C         10.35566       -0.95649       -2.17211
F          9.93889        0.12012       -2.85597
C         11.16275       -1.86580       -2.86765
F         11.46963       -1.56283       -4.13812
C         11.65195       -3.02767       -2.26770
C         12.52118       -3.99842       -2.96009
C         13.47544       -4.84252       -2.43422
C         13.93867       -5.88125       -3.33562
C         14.76625       -7.02101       -3.13077
C         15.43515       -7.25216       -1.81368
C         16.72230       -7.70493       -1.54093
C         17.04178       -7.73246       -0.15110
Cl        18.56483       -8.25943        0.42445
C         16.01926       -7.23407        0.62146
C         16.01719       -6.89279        2.07468
S         14.60349       -7.03939       -0.31513
C         14.94693       -7.95733       -4.17833
S         15.76260       -9.47985       -4.11394
C         15.39769       -9.91704       -5.71648
C         15.80718      -11.23188       -6.27312
C         16.48748      -12.19152       -5.49686
C         16.84244      -13.44067       -6.01392
C         16.52317      -13.75152       -7.32780
N         16.87016      -14.99991       -7.85162
C         16.59549      -15.38765       -9.13809
O         16.92753      -16.49763       -9.54142
C         15.88383      -14.40330      -10.00347
C         15.58212      -14.76584      -11.34337
N         15.30870      -15.00196      -12.44686
C         15.53859      -13.19744       -9.51631
C         15.85588      -12.82645       -8.13454
C         15.50409      -11.57511       -7.60590
C         14.68585       -8.89237       -6.30664
C         14.41716       -7.74485       -5.45793
C         13.70862       -6.53492       -5.70091
C         13.20462       -6.21417       -7.07348
C         12.01079       -5.62736       -7.47809
C         11.90530       -5.43086       -8.88392
Cl        10.55955       -4.64905       -9.59622
C         12.97192       -5.96957       -9.56209
C         13.15851       -6.10274      -11.03689
S         14.19393       -6.46508       -8.47381
C         13.42805       -5.65766       -4.62354
S         12.47652       -4.21069       -4.63802
C         11.25017       -3.24868       -0.94563
F         11.62432       -4.36616       -0.30069
C         10.44709       -2.33656       -0.24689
F         10.13084       -2.66593        1.01477
S          8.80226       -0.27735        1.54349
C          7.81953        1.14364        1.61492
C          6.99203        1.61143        2.66911
C          6.77536        0.78616        3.89676
C          6.70765        1.16832        5.23097
C          6.52495        0.07819        6.13404
Cl         6.37916        0.30704        7.82375
C          6.53178       -1.13726        5.49103
C          6.54449       -2.50880        6.08334
S          6.47067       -0.91722        3.79874
C          6.38216        2.89577        2.57561
C          5.50540        3.62136        3.47893
C          5.17157        4.90252        3.08020
C          4.37101        5.94217        3.77664
C          4.22386        7.24796        3.26232
C          3.44210        8.21326        3.90875
C          2.79619        7.88417        5.09335
N          1.99494        8.83059        5.74146
C          1.32212        8.57918        6.91404
O          0.62757        9.45529        7.42773
C          1.47363        7.22492        7.51126
C          0.79608        6.91882        8.73564
N          0.27419        6.61459        9.71763
C          2.24427        6.30425        6.90325
C          2.93577        6.60936        5.64686
C          3.72246        5.65124        4.99169
S          5.79068        5.17022        1.51786
C          6.62077        3.66015        1.42545
C          7.54653        3.68188       -2.17804
C          7.96858        4.72616       -3.05353
Cl         7.95889        4.54128       -4.75568
H          8.50240        8.00072       -2.24673
H          8.34744        7.38063       -3.88630
H          9.88654        7.20399       -3.02470
H          8.95721        1.49768       -1.52353
H         13.74298       -4.78206       -1.38912
H         17.43411       -7.98947       -2.30558
H         16.57746       -7.62853        2.65946
H         15.00527       -6.83767        2.48810
H         16.49074       -5.91430        2.22251
H         16.75407      -11.99427       -4.46091
H         17.35996      -14.15203       -5.37631
H         17.35236      -15.68047       -7.27814
H         15.01793      -12.47023      -10.13294
H         14.98356      -10.86930       -8.24838
H         14.32602       -8.96523       -7.32282
H         11.22617       -5.32125       -6.79961
H         12.24212       -6.48588      -11.50215
H         13.96218       -6.80115      -11.29160
H         13.38730       -5.13163      -11.48582
H          6.80401        2.19202        5.56744
H          7.36232       -2.59829        6.80891
H          6.69868       -3.28917        5.33037
H          5.60463       -2.71628        6.60356
H          5.15652        3.20788        4.41415
H          4.71493        7.54874        2.33885
H          3.34799        9.20166        3.47022
H          1.88046        9.75766        5.35050
H          2.37135        5.31254        7.32673
H          3.81574        4.66397        5.43749
H          7.17875        2.72575       -2.52999
