89

C          0.94601       -2.98346       -4.27255
S          1.60894       -3.30765       -2.61533
C          2.17022       -1.65686       -2.21119
C          1.27851       -0.80417       -1.53263
C         -0.05132       -1.03188       -1.04388
C         -0.67659        0.08280       -0.52918
C         -2.00476        0.25351       -0.03985
C         -3.08035       -0.38447       -0.52238
S         -3.19677       -1.49618       -1.83506
C         -4.89990       -1.78231       -1.57175
O         -5.53424       -2.60762       -2.20636
N         -5.35377       -0.96689       -0.57339
C         -6.73247       -0.98935       -0.15373
C         -4.42985       -0.17549        0.06982
O         -4.65615        0.58070        1.00321
S          0.42463        1.38940       -0.48224
C          1.69478        0.49578       -1.24340
C          2.99196        0.91145       -1.57746
S          3.53750        2.57724       -1.21991
C          4.18992        2.32423        0.45264
C          3.89187        0.05240       -2.24322
C          5.24692        0.25296       -2.69030
C          5.81159       -0.83534       -3.32255
C          7.10219       -1.02408       -3.89104
C          8.03786       -0.06138       -3.87204
C          9.33069       -0.21942       -4.45271
C         10.49814        0.43161       -4.09935
C         11.63066        0.14439       -4.95298
C         12.95876        0.63555       -4.96915
S         13.40501        1.89190       -3.77349
C         13.12061        3.39643       -4.75415
C         13.92099        0.11910       -5.86229
S         15.60942        0.50783       -6.00971
C         15.87235       -0.61069       -7.27088
C         17.14292       -0.75678       -7.90163
C         18.09550       -1.62172       -7.51675
C         17.97852       -2.56149       -6.34199
O         17.23866       -2.49539       -5.38259
C         18.97332       -3.62194       -6.56909
C         19.11821       -4.77616       -5.81455
C         20.07438       -5.70667       -6.22136
C         20.84469       -5.48182       -7.37778
C         21.89290       -6.47927       -7.79208
C         20.67797       -4.29211       -8.11669
C         19.75146       -3.33957       -7.69960
C         19.35437       -1.99548       -8.22090
C         20.09741       -1.22033       -9.05014
C         19.72530        0.11074       -9.39783
N         19.41765        1.18820       -9.69283
C         21.33886       -1.64094       -9.60450
N         22.35551       -1.98166      -10.05620
C         14.68828       -1.21433       -7.62871
C         13.56604       -0.85651       -6.79883
C         12.23534       -1.31425       -6.80206
S         11.78816       -2.58695       -7.97921
C         12.12936       -4.03951       -6.94774
C         11.28388       -0.81782       -5.90275
S          9.61868       -1.24055       -5.78634
S          4.68590       -2.11801       -3.38808
C          3.45775       -1.23537       -2.56133
H          0.59253       -3.92259       -4.70730
H          1.71679       -2.56920       -4.92808
H          0.10435       -2.28743       -4.21991
H         -0.53301       -1.99900       -1.11417
H         -2.14184        0.96540        0.77604
H         -7.35638       -1.53143       -0.86938
H         -7.09617        0.03729       -0.05145
H         -6.79069       -1.47959        0.82306
H          4.67293        3.24693        0.78699
H          4.93320        1.52232        0.46733
H          3.38290        2.08477        1.14992
H          5.77692        1.18519       -2.54140
H          7.31030       -1.99165       -4.34238
H          7.84249        0.89850       -3.40272
H         10.54288        1.10960       -3.25429
H         13.57256        4.24841       -4.23527
H         12.04918        3.59105       -4.85552
H         13.57239        3.32567       -5.74715
H         17.23822       -0.18410       -8.81805
H         18.50095       -4.95044       -4.93768
H         20.21244       -6.61803       -5.64151
H         21.67720       -7.47416       -7.38864
H         22.87467       -6.16101       -7.42731
H         21.93164       -6.57242       -8.88281
H         21.28339       -4.16243       -9.00756
H         14.61816       -1.91443       -8.45275
H         11.76597       -4.93509       -7.45869
H         11.62572       -3.96703       -5.97966
H         13.20575       -4.14307       -6.78647
