126

C          3.32946      -12.71798      -11.84341
S          3.19492      -12.94900      -13.56366
C          3.39502      -11.24436      -13.91932
O          3.38489      -10.80258      -15.05664
N          3.55856      -10.54632      -12.75914
C          3.56614      -11.25987      -11.58269
O          3.74661      -10.75052      -10.48685
C          3.74761       -9.11256      -12.74228
C          3.18331      -13.75732      -11.00063
C          3.24161      -13.70073       -9.57708
C          4.02892      -12.95745       -8.72950
C          3.66407      -12.99475       -7.33239
C          4.16007      -12.27790       -6.20586
C          5.39391      -11.42626       -6.34743
C          5.88464      -10.68096       -7.41509
C          7.10838       -9.99318       -7.14649
C          7.53449      -10.18097       -5.85481
S          6.56616      -11.34394       -5.06868
C          8.68511       -9.57529       -5.12232
Cl         7.88588       -9.03709       -8.33583
C          3.46203      -12.36007       -4.97068
C          2.36350      -13.21566       -4.79617
C          1.95227      -14.03149       -5.89432
C          2.60411      -13.89798       -7.14684
S          2.33605      -14.78516       -8.62392
C          0.78755      -14.96561       -5.74391
C         -0.19019      -15.35949       -6.65380
C         -1.21494      -16.17675       -6.08828
C         -1.06108      -16.31556       -4.73030
S          0.51537      -15.84659       -4.27462
C         -2.01189      -16.84908       -3.71393
Cl        -2.51087      -16.79587       -7.01699
C          1.84276      -13.07303       -3.44663
C          2.60636      -12.31025       -2.58967
S          3.71445      -11.43266       -3.52374
C          2.49752      -12.10998       -1.12587
C          3.60254      -11.91569       -0.25598
C          3.44650      -11.71904        1.16209
N          4.55050      -11.54533        1.92739
C          5.77801      -11.49621        1.35837
C          5.92558      -11.67581        0.01447
N          4.85165      -11.91341       -0.77930
C          7.19715      -11.59215       -0.65120
N          8.22702      -11.50586       -1.15717
C          6.87146      -11.22835        2.24478
N          7.77113      -11.01052        2.94629
C          2.17984      -11.69806        1.79392
C          1.04626      -11.91865        0.95731
C          1.20820      -12.13255       -0.52190
N          0.02813      -12.32068       -1.14039
S         -1.16015      -12.24616       -0.00153
N         -0.24447      -11.94966        1.33537
C          1.95378      -11.42123        3.23267
C          0.98651      -11.89567        4.09221
C          0.93186      -11.26253        5.40069
C          0.00769      -11.39030        6.48606
C         -1.17127      -12.33393        6.38812
C         -1.80330      -13.11395        7.35772
C         -2.85451      -13.94575        6.85239
C         -3.02657      -13.80222        5.49668
S         -2.04981      -12.53521        4.90532
C         -3.95758      -14.53243        4.58182
Cl        -3.75903      -15.00058        7.85506
C          0.21345      -10.61807        7.66126
C          1.34229       -9.78873        7.81713
C          2.27461       -9.67431        6.74594
C          2.02298      -10.38781        5.54333
S          2.94050      -10.35074        4.08485
C          3.48971       -8.76827        6.84971
C          4.18033       -8.05341        5.87097
C          5.24293       -7.23803        6.35669
C          5.33815       -7.28602        7.72407
S          4.34798       -8.52952        8.34138
C          6.18618       -6.45659        8.62806
Cl         6.20528       -6.27721        5.31742
C          1.32235       -9.18907        9.12877
C          0.25989       -9.51694        9.93330
S         -0.82033      -10.48939        9.05710
C          0.01553       -9.21865       11.30578
C          0.36744       -8.08251       11.93097
C          0.39075       -7.82240       13.38918
C         -0.52311       -8.23423       14.30225
C         -0.47553       -7.83337       15.66192
N         -0.43534       -7.50632       16.78174
C         -1.64731       -9.03542       13.94484
N         -2.55472       -9.69628       13.64415
C          1.50961       -6.85965       13.61716
C          1.88557       -6.33199       12.37267
C          1.07064       -6.91361       11.30150
O          0.98441       -6.48444       10.17048
C          2.93676       -5.44398       12.19793
C          3.64505       -5.05812       13.33157
C          3.29594       -5.55859       14.60207
C          2.22299       -6.46531       14.74361
C          4.05377       -5.09654       15.81789
H          3.70402       -8.68377      -13.74642
H          4.71922       -8.88990      -12.28974
H          2.97042       -8.65991      -12.11745
H          2.95582      -14.73429      -11.42824
H          4.79171      -12.31738       -9.13496
H          5.39787      -10.59070       -8.37453
H          9.34312       -9.00863       -5.78814
H          9.29012      -10.34929       -4.63975
H          8.32717       -8.88629       -4.34802
H         -0.21824      -15.05086       -7.68945
H         -1.84902      -17.91602       -3.54329
H         -3.04966      -16.70304       -4.03514
H         -1.90636      -16.32106       -2.75848
H          0.96084      -13.58245       -3.09034
H          0.28055      -12.63706        3.75116
H         -1.52946      -13.12331        8.40476
H         -3.90772      -15.61481        4.75094
H         -3.71960      -14.36284        3.52579
H         -4.98962      -14.20960        4.75171
H          3.93840       -8.06265        4.81906
H          7.24803       -6.59942        8.40594
H          6.02339       -6.69190        9.68473
H          5.94956       -5.39389        8.49276
H          2.09603       -8.54130        9.50192
H         -0.39249      -10.04779       11.87740
H          3.21054       -5.08789       11.21052
H          4.48364       -4.37235       13.22374
H          1.99978       -6.85100       15.73323
H          4.98472       -4.59007       15.54037
H          4.32139       -5.94674       16.45297
H          3.44196       -4.39375       16.39172
