51

C          6.68739        0.33750       -2.81143
O          6.18782       -0.27750       -1.63267
C          4.85634       -0.55606       -1.63841
C          3.92494       -0.31578       -2.69575
C          2.64639       -0.76252       -2.41526
C          1.44447       -0.72283       -3.27233
C          0.44212       -1.70658       -3.21895
F          0.54547       -2.75683       -2.39085
C         -0.68192       -1.64392       -4.04832
F         -1.61981       -2.59566       -3.96860
C         -0.83763       -0.61660       -4.96381
C          0.14965        0.35103       -5.04655
F          0.01952        1.34090       -5.93748
C          1.27184        0.30284       -4.21539
F          2.19163        1.27389       -4.34567
S          2.57895       -1.37617       -0.81726
C          4.26232       -1.17038       -0.54539
C          4.86071       -1.60619        0.70087
S          6.19655       -0.78005        1.40217
C          6.30759       -1.85892        2.73601
C          7.30934       -1.71805        3.76955
C          7.79125       -2.71146        4.60165
C          8.70550       -2.21866        5.58994
O          9.32148       -2.93227        6.56946
C          9.09894       -4.33624        6.53483
C          8.89503       -0.84443        5.50284
C          9.67206        0.09022        6.35335
C         10.88811       -0.28217        6.94836
F         11.43738       -1.48242        6.70930
C         11.59072        0.59463        7.78245
F         12.73421        0.19705        8.35699
C         11.13123        1.87977        8.02701
C          9.94702        2.27481        7.43130
F          9.49375        3.51826        7.64215
C          9.21988        1.39745        6.62355
F          8.05670        1.84550        6.12502
S          8.05931       -0.22862        4.12928
C          5.31724       -2.81111        2.64532
F          5.13549       -3.75847        3.52814
C          4.50239       -2.66592        1.50714
F          3.51516       -3.48293        1.25004
H          6.22021        1.31390       -2.97960
H          6.55714       -0.31654       -3.67993
H          7.76089        0.50059       -2.67638
H          4.18228        0.14442       -3.64112
H         -1.70926       -0.57763       -5.60766
H          7.47701       -3.74111        4.51307
H          9.80014       -4.80641        7.23125
H          9.28971       -4.76594        5.54478
H          8.08275       -4.56521        6.87129
H         11.68505        2.55771        8.66493
