75

C          3.01669        0.21298       -3.27251
C          1.77689        0.26501       -2.65868
F          1.14080        1.44202       -2.58675
C          1.18376       -0.88123       -2.11317
F         -0.01786       -0.73576       -1.53513
C          1.81454       -2.13675       -2.15978
C          3.07618       -2.15892       -2.79767
C          3.65758       -1.00851       -3.33769
F          4.85918       -1.08612       -3.92611
F          3.79138       -3.28731       -2.91669
C          1.17883       -3.34505       -1.55107
C         -0.04293       -3.49840       -0.86457
C         -0.24014       -4.82886       -0.40680
C          0.81912       -5.62153       -0.76250
S          2.00683       -4.87985       -1.62803
C          0.62916       -6.91779       -0.25990
C         -0.56207       -6.97734        0.41456
C         -1.19986       -5.64782        0.35340
C         -2.38643       -5.27232        0.86716
C         -3.21730       -6.18850        1.57363
N         -3.88573       -6.93732        2.14766
C         -2.87520       -3.94274        0.72211
N         -3.27595       -2.85857        0.60433
C         -0.76100       -8.27747        0.95672
C          0.30165       -9.15262        0.65035
S          1.53360       -8.29678       -0.24609
C          0.53418      -10.58662        1.00648
C          1.23790      -11.52771        0.20369
C          1.44359      -12.90709        0.59182
N          2.11145      -13.74183       -0.23908
C          2.60742      -13.26694       -1.41302
C          2.42831      -11.96321       -1.77821
N          1.73046      -11.11463       -0.98647
C          2.94754      -11.40518       -2.99242
N          3.37913      -10.97028       -3.97901
C          3.29210      -14.21335       -2.23701
N          3.83823      -14.96615       -2.93573
C          0.96331      -13.43404        1.81017
C          0.29160      -12.50942        2.67086
C          0.05733      -11.07551        2.25402
N         -0.61750      -10.37693        3.18487
S         -0.93312      -11.39034        4.44728
N         -0.18433      -12.75168        3.90508
C          1.11266      -14.86492        2.20957
C          2.14650      -15.78654        1.96010
C          1.88335      -17.05724        2.54125
C          0.67012      -17.05361        3.18377
S         -0.19942      -15.65565        3.05498
C          0.44865      -18.31182        3.77026
C          1.51104      -19.13827        3.49425
C          2.48397      -18.39566        2.67925
C          3.64617      -18.84100        2.16314
C          4.09297      -20.17584        2.37010
N          4.45608      -21.26375        2.54436
C          4.48407      -17.99600        1.38455
N          5.16341      -17.29043        0.76144
C          1.31413      -20.42082        4.06725
C          0.11479      -20.48542        4.79445
S         -0.76560      -18.98603        4.66695
C         -0.48889      -21.60411        5.55411
C         -1.28102      -21.39792        6.70001
F         -1.46477      -20.16671        7.20166
C         -1.89200      -22.46075        7.36862
F         -2.65753      -22.22105        8.44196
C         -1.71999      -23.76548        6.93930
C         -0.91983      -23.99252        5.82959
C         -0.31281      -22.93388        5.14486
F          0.43197      -23.21974        4.06559
F         -0.73843      -25.25147        5.40885
H          3.47479        1.10146       -3.69027
H         -0.73078       -2.67811       -0.69576
H         -1.61738       -8.58139        1.54813
H          3.03502      -15.52983        1.39587
H          1.98992      -21.26523        3.98405
H         -2.19686      -24.58690        7.46167
