66

C         -5.00283       -0.16468        0.37757
C         -4.11086       -0.34367       -0.66837
F         -4.10301        0.54219       -1.67339
C         -3.23179       -1.43113       -0.69098
F         -2.40711       -1.55615       -1.74259
C         -3.21619       -2.38085        0.34222
C         -4.11063       -2.16620        1.40712
C         -4.99232       -1.08291        1.41393
F         -5.84262       -0.92245        2.43698
F         -4.13447       -2.98833        2.46750
C         -2.30496       -3.54658        0.28700
C         -1.03514       -3.66703       -0.29574
C         -0.50659       -4.97097       -0.13456
C         -1.38471       -5.77783        0.54786
S         -2.82021       -5.06883        0.96397
C         -0.81860       -7.05698        0.69808
C          0.41955       -7.07786        0.09845
C          0.69296       -5.74942       -0.46742
C          1.79011       -5.33858       -1.13372
C          2.88422       -6.21171       -1.37923
N          3.77984       -6.92288       -1.57763
C          1.91473       -4.00798       -1.62000
N          2.01599       -2.91960       -2.01048
C          1.01645       -8.35728        0.21282
C          0.20201       -9.23560        0.93744
S         -1.28830       -8.47599        1.41069
C          0.47488      -10.62182        1.25720
N          1.25327      -11.36801        0.49404
C          1.29073      -12.62659        1.01748
C          0.60160      -12.85755        2.17075
S         -0.17913      -11.39888        2.67297
N          0.64432      -14.11371        2.69783
C          1.39548      -14.87371        1.91976
S          2.06363      -14.08813        0.51292
C          1.63693      -16.27005        2.23824
C          1.11480      -16.98493        3.32626
C          1.56827      -18.32610        3.33265
C          2.40246      -18.56735        2.26574
S          2.66628      -17.27665        1.26306
C          2.83981      -19.90370        2.31261
C          2.29386      -20.52074        3.41214
C          1.44029      -19.55965        4.12335
C          0.70635      -19.76381        5.23448
C          0.68628      -21.02615        5.89127
N          0.67320      -22.05658        6.42540
C         -0.08506      -18.73371        5.80951
N         -0.73332      -17.89612        6.28001
C          2.72644      -21.86611        3.50667
C          3.60704      -22.20177        2.46796
S          3.80607      -20.86066        1.37112
C          4.30083      -23.48016        2.18980
C          3.72172      -24.70763        2.54746
F          2.52418      -24.74458        3.15252
C          4.36031      -25.92196        2.27502
F          3.77818      -27.07630        2.62653
C          5.59199      -25.95763        1.63985
C          6.18455      -24.75665        1.28872
C          5.55973      -23.53822        1.56340
F          6.21785      -22.41854        1.22585
F          7.37840      -24.77040        0.68055
H         -5.68898        0.67433        0.38815
H         -0.54455       -2.84082       -0.79851
H          1.98109       -8.66012       -0.18190
H          0.45116      -16.52385        4.05008
H          2.44262      -22.57116        4.27986
H          6.08298      -26.90011        1.42659
