87

C         -0.68344        1.05729        2.37263
C         -1.94354        1.46074        2.72174
S         -2.53684        0.52352        4.05090
C         -1.08938       -0.40100        4.14844
C         -0.20225        0.01428        3.19336
C          1.12543       -0.40596        2.84921
O          1.83957       -1.15452        3.48501
C          1.39896        0.37207        1.55731
C          0.31131        1.41109        1.38541
C          0.27863        2.47999        0.55412
C         -0.82541        3.38109        0.53159
N         -1.72207        4.11149        0.50508
C          1.33135        2.81338       -0.34062
N          2.18835        3.07959       -1.07785
C          2.38917        0.06134        0.69964
C          3.29546       -1.02866        0.84559
C          3.07565       -2.34969        1.24413
C          4.27619       -3.07839        1.30508
C          5.34044       -2.32365        0.87628
S          4.96547       -0.77978        0.40371
C          6.51255       -3.09180        0.98919
C          6.19361       -4.33329        1.48825
C          4.74748       -4.40003        1.71407
C          4.01831       -5.42356        2.19688
C          2.60521       -5.33201        2.35578
N          1.45152       -5.26672        2.46788
C          4.61905       -6.65869        2.56200
N          5.10245       -7.66922        2.85703
C          7.34886       -5.12711        1.65675
C          8.50525       -4.44543        1.25333
S          8.12441       -2.82018        0.74627
C          9.91710       -4.88581        1.28823
C         10.46476       -5.62436        2.35908
C         11.85084       -6.02434        2.39036
N         12.31599       -6.68992        3.47292
C         11.46556       -7.01261        4.46606
C         10.14665       -6.65814        4.41902
N          9.64559       -5.95616        3.38517
C         12.74533       -5.74341        1.32656
C         12.23115       -4.98338        0.23909
C         10.79332       -4.55844        0.21196
N         10.48539       -3.89377       -0.91737
S         11.86318       -3.72941       -1.80424
N         12.90629       -4.57907       -0.85325
C         14.13690       -6.24259        1.22118
C         15.27413       -5.63876        0.66327
C         16.38576       -6.51078        0.67191
C         16.06316       -7.71924        1.23933
S         14.49269       -7.87334        1.73044
C         17.20555       -8.53938        1.26662
C         18.26525       -7.85050        0.72260
C         17.79320       -6.53580        0.26285
C         18.47395       -5.59247       -0.41652
C         17.86195       -4.37682       -0.84105
N         17.37476       -3.38344       -1.19060
C         19.84063       -5.77545       -0.76619
N         20.95757       -5.92750       -1.03915
C         19.46343       -8.59524        0.83655
C         19.23756       -9.82241        1.46975
S         17.55335      -10.06024        1.82998
C         20.17504      -10.77285        1.96363
C         20.59834      -11.86408        1.30356
C         20.17189      -12.18398       -0.12837
O         19.23744      -11.76106       -0.77817
C         21.15774      -13.15106       -0.53585
C         21.43257      -13.76420       -1.72816
S         22.77486      -14.82958       -1.55666
C         22.96084      -14.45442        0.12172
C         22.02277      -13.53831        0.51385
C         21.65568      -12.85572        1.73161
C         22.09704      -13.14143        2.98003
C         23.07428      -14.14956        3.22415
N         23.87098      -14.96872        3.42580
C         21.59372      -12.50359        4.14710
N         21.18438      -11.97773        5.09670
H         -2.58431        2.22738        2.30882
H         -0.97260       -1.18920        4.88145
H          2.54452        0.63282       -0.20768
H          2.09892       -2.71992        1.52838
H          7.37818       -6.13104        2.06470
H         11.88415       -7.57028        5.29567
H          9.45063       -6.92268        5.20659
H         15.26197       -4.63453        0.25513
H         20.45395       -8.26253        0.54988
H         20.55199      -10.52267        2.94811
H         20.93467      -13.64534       -2.68145
H         23.75027      -14.94527        0.67496
