79

C         -2.23841        1.56944       -4.53594
N         -0.92825        1.43949       -4.79145
C         -0.34842        0.32904       -4.30477
C         -1.02439       -0.62306       -3.57803
C         -2.37219       -0.39347       -3.38528
N         -3.00236        0.69845       -3.86082
C         -3.17090       -1.34372       -2.60199
C         -4.49473       -1.50865       -2.75908
C         -5.22306       -2.43450       -1.95507
C         -4.98888       -2.85713       -0.64199
C         -5.95963       -3.78215       -0.20918
C         -6.89102       -4.02413       -1.19175
S         -6.64791       -3.19682       -2.61088
C         -7.83003       -4.95602       -0.70710
C         -7.48080       -5.32433        0.57158
C         -6.29035       -4.57035        0.97838
C         -5.67402       -4.56987        2.17900
C         -6.13661       -5.37306        3.25663
N         -6.51403       -6.03138        4.13737
C         -4.54001       -3.74721        2.43425
N         -3.61349       -3.07508        2.64438
C         -8.35950       -6.30636        1.08191
C         -9.37942       -6.60972        0.16995
S         -9.22379       -5.64254       -1.27541
C        -10.52356       -7.53943        0.30838
C        -11.03801       -8.34945       -0.73270
C        -12.19403       -9.18785       -0.55623
N        -12.64841       -9.89624       -1.61716
C        -12.03609       -9.81037       -2.82269
C        -10.91933       -9.04598       -2.97454
N        -10.41388       -8.33559       -1.93560
C        -10.21083       -8.93838       -4.21627
N         -9.65387       -8.87016       -5.22740
C        -12.62550      -10.57441       -3.88827
N        -13.07580      -11.18522       -4.76314
C        -12.86628       -9.31427        0.68757
C        -12.35254       -8.53798        1.77012
C        -11.17524       -7.62407        1.57106
N        -10.86515       -6.93437        2.68380
S        -11.89569       -7.41717        3.87749
N        -12.81386       -8.49705        3.03351
C        -14.04264      -10.19294        0.93097
C        -14.44341      -10.84964        2.10409
C        -15.63802      -11.57936        1.91894
C        -16.12111      -11.43250        0.64208
S        -15.19349      -10.49758       -0.35173
C        -17.33957      -12.12627        0.52540
C        -17.62823      -12.72115        1.73184
C        -16.54774      -12.43858        2.67772
C        -16.39926      -12.90428        3.93166
C        -17.35072      -13.77716        4.52190
N        -18.12241      -14.49435        5.00941
C        -15.26053      -12.57762        4.71910
N        -14.32906      -12.31775        5.35637
C        -18.86133      -13.40073        1.68469
C        -19.44468      -13.30418        0.41722
S        -18.46911      -12.35729       -0.66634
C        -20.71398      -13.86494       -0.04442
N        -20.84030      -14.15257       -1.35094
C        -22.00511      -14.70974       -1.71813
C        -23.02463      -14.98355       -0.83705
C        -22.79544      -14.63870        0.47969
N        -21.64170      -14.08532        0.90009
C        -23.82557      -14.88291        1.49666
C        -23.96480      -14.13768        2.60182
H         -2.72439        2.46500       -4.90691
H          0.71048        0.22287       -4.52178
H         -0.52110       -1.50193       -3.19910
H         -2.61341       -1.93219       -1.88010
H         -5.02972       -0.94600       -3.52314
H         -4.15705       -2.47956       -0.05988
H         -8.28816       -6.77351        2.05746
H        -13.89169      -10.78113        3.03347
H        -19.33495      -13.94776        2.49158
H        -22.09641      -14.93710       -2.77628
H        -23.95289      -15.42469       -1.17322
H        -24.50284      -15.71250        1.31867
H        -23.31701      -13.28884        2.80385
H        -24.74073      -14.35663        3.32763
