69

C         -0.17805        5.81564        0.78941
N          0.02441        5.14016       -0.46952
N         -1.01758        4.68728       -1.17750
C         -0.42515        4.14982       -2.25264
C         -1.02968        3.53744       -3.35856
C         -0.11888        3.08296       -4.31473
F         -0.61192        2.49386       -5.41570
C          1.28791        3.21103       -4.19439
F          2.02342        2.69293       -5.19316
C          1.94000        3.83181       -3.10055
C          3.39111        4.01540       -2.97560
S          4.30083        4.38937       -4.42407
C          5.71291        4.38654       -3.51034
C          5.57358        4.18499       -2.16970
S          7.17815        4.28506       -1.53154
C          7.98605        4.54515       -3.03912
C          9.24321        4.75074       -3.65938
F         10.35912        4.82885       -2.98701
C          9.14030        4.87412       -5.04243
C         10.17824        5.06617       -6.07262
C          9.96128        5.79497       -7.26428
C         10.93356        5.97043       -8.27774
C         12.24221        5.43616       -8.22632
C         13.24549        5.64947       -9.28777
S         12.67522        5.84547      -10.93676
C         14.26181        6.10444      -11.43245
C         15.22380        6.01849      -10.47293
S         16.71430        6.32608      -11.29456
C         16.03413        6.59797      -12.85986
C         16.31679        6.93829      -14.20468
F         17.52112        7.18501      -14.64720
C         15.16860        7.01121      -14.98225
C         15.03797        7.33804      -16.40795
C         15.95873        6.93818      -17.39581
F         17.02851        6.20713      -17.03703
C         15.81855        7.23750      -18.77873
F         16.75868        6.79837      -19.62326
C         14.74279        7.95783      -19.31630
C         13.80384        8.36966      -18.36333
N         12.66238        9.05446      -18.55411
N         12.17339        9.15001      -17.31142
C         10.88559        9.74856      -17.05616
N         12.89073        8.64784      -16.30099
C         13.94381        8.08191      -16.92191
S         13.73886        6.57398      -14.07545
C         14.69289        6.40972      -12.70115
C         14.63344        5.74060       -9.21680
F         15.33311        5.65006       -8.11907
C         12.52741        4.66999       -7.05616
N         13.66891        4.01772       -6.77621
S         13.49461        3.31802       -5.29170
N         11.93299        3.72584       -4.94416
C         11.47704        4.48654       -5.95461
S          7.47080        4.76766       -5.57418
C          6.99607        4.55664       -3.97454
C          4.21054        3.96344       -1.85170
F          3.79556        3.69533       -0.64357
C          1.03896        4.30666       -2.11424
N          1.25922        4.96409       -0.95976
H         -1.22958        6.10089        0.88092
H          0.44969        6.70941        0.80982
H          0.09833        5.12958        1.59312
H         -2.09906        3.43052       -3.47025
H          8.99105        6.26366       -7.43907
H         10.62623        6.56349       -9.14107
H         14.64991        8.16223      -20.37323
H         10.43149       10.05908      -18.00004
H         11.03192       10.61336      -16.40471
H         10.25243        9.00383      -16.56589
