89

C         16.84054        3.65763        7.19954
C         17.59253        2.64608        7.76707
S         17.64143        1.23188        6.78346
C         16.68391        1.95739        5.60833
C         16.30944        3.23854        5.96116
C         15.42990        3.81660        4.96369
O         14.95119        4.93417        4.93913
C         15.16324        2.65226        4.01799
C         16.15070        1.58208        4.33359
C         16.63463        0.60057        3.53918
C         17.57327       -0.37640        3.98025
N         18.32243       -1.19682        4.31525
C         16.26644        0.50534        2.16386
N         15.97914        0.43614        1.04123
C         13.98307        2.69348        3.37192
C         13.30000        1.57001        2.82186
C         12.45091        1.52553        1.70759
C         11.98903        0.21295        1.46235
C         12.49953       -0.66313        2.38786
S         13.30017        0.03199        3.65270
C         12.05913       -1.95827        2.09234
C         11.21679       -1.91317        1.01269
C         11.12750       -0.52892        0.53517
C         10.37748       -0.04192       -0.47141
C         10.33310        1.34920       -0.75878
N         10.28773        2.48894       -0.97242
C          9.55647       -0.88834       -1.26964
N          8.87874       -1.57608       -1.90668
C         10.61109       -3.17251        0.80093
C         10.94448       -4.07693        1.82848
S         12.28779       -3.45061        2.75242
C         10.16553       -5.24012        2.34715
C         10.27501       -5.69296        3.68135
C          9.11197       -5.89138        4.49339
N          9.26413       -6.20390        5.80094
C         10.50700       -6.34780        6.32146
C         11.61659       -6.21053        5.53422
N         11.50377       -5.88557        4.22100
C         12.94750       -6.39362        6.02792
N         14.01592       -6.55350        6.45231
C         10.56879       -6.64985        7.71945
N         10.64047       -6.89314        8.85190
C          7.80466       -5.74702        3.98012
C          7.69554       -5.72338        2.55914
C          8.91929       -5.49859        1.72090
N          8.66194       -5.49762        0.40214
S          7.04162       -5.75944        0.21958
N          6.58278       -5.81012        1.80917
C          6.60431       -5.52656        4.81744
C          5.25430       -5.79375        4.56791
C          4.41846       -5.17648        5.52564
C          5.14660       -4.53257        6.49576
S          6.78473       -4.61180        6.30601
C          4.27857       -3.76066        7.28765
C          3.00520       -3.87494        6.78643
C          2.99970       -4.87865        5.72026
C          1.94354       -5.42738        5.09124
C          2.10899       -6.44977        4.11570
N          2.25288       -7.29082        3.32898
C          0.61273       -5.04687        5.41298
N         -0.46969       -4.72765        5.68275
C          2.15823       -2.89783        7.34983
C          2.85263       -2.06826        8.24706
S          4.44368       -2.69815        8.54455
C          2.32334       -0.91851        8.90586
C          2.95836        0.20217        9.30037
C          2.31949        1.33337       10.05638
C          1.07007        1.83558        9.93504
C          0.61786        2.99390       10.62865
N          0.22044        3.93516       11.17647
C          0.13141        1.28786        9.01423
N         -0.60694        0.82070        8.25072
C          3.40049        1.95382       10.75793
C          4.62475        1.51251       10.30997
C          5.71318        2.13317       10.96326
C          5.25811        3.00960       11.93213
S          3.53634        3.06496       12.01165
C          4.46276        0.52034        9.26189
O          5.32326        0.13633        8.49615
H         16.67285        4.62326        7.66135
H         18.11395        2.65786        8.71515
H         13.43210        3.63464        3.34074
H         12.22731        2.40385        1.11288
H          9.82674       -3.35451        0.07720
H          4.91520       -6.30762        3.67721
H          1.12839       -2.70969        7.06553
H          1.25517       -1.00499        9.08310
H          6.76124        1.94583       10.76059
H          5.84515        3.62077       12.60541
