89

C          2.88912       -2.13365       -9.83051
C          1.87804       -1.39507       -9.24391
S          2.40198       -0.57131       -7.82320
C          3.96045       -1.17502       -7.99231
C          4.07953       -2.01613       -9.08151
C          5.40881       -2.59506       -9.14736
O          5.86405       -3.34345       -9.98930
C          6.04417       -2.13775       -7.83905
C          5.19290       -1.06065       -7.27517
C          5.54318       -0.03705       -6.46095
C          4.62475        0.94943       -6.00382
N          3.90417        1.76873       -5.60982
C          6.89611        0.16065       -6.05452
N          7.99925        0.33807       -5.72894
C          6.97185       -2.95911       -7.32035
C          7.30604       -3.02671       -5.93659
C          6.51420       -2.79298       -4.80728
C          7.23324       -2.99503       -3.61612
C          8.48807       -3.49377       -3.86948
S          8.88485       -3.61005       -5.47642
C          9.08300       -3.84707       -2.64287
C          8.21451       -3.54791       -1.61689
C          7.01165       -2.93430       -2.17234
C          5.96379       -2.39754       -1.51879
C          4.89701       -1.78453       -2.23071
N          4.05252       -1.29090       -2.86103
C          5.88947       -2.38779       -0.09966
N          5.83431       -2.38991        1.05920
C          8.71994       -3.96593       -0.36850
C          9.95481       -4.60268       -0.51572
S         10.47435       -4.61218       -2.17794
C         10.73832       -5.26347        0.50511
C         12.10554       -5.42701        0.58574
C         12.50766       -6.23091        1.71539
N         13.80816       -6.55141        1.97218
C         14.66687       -6.04034        1.04328
C         16.09837       -6.35662        1.25979
O         16.51086       -6.93501        2.25697
C         17.05804       -5.95479        0.21422
C         16.67706       -5.26286       -0.85961
C         15.27593       -4.84657       -1.05967
O         14.98732       -4.18054       -2.04564
C         14.27433       -5.27947       -0.05687
N         12.98527       -4.91907       -0.32412
C         11.43735       -6.68760        2.46310
S          9.96609       -6.05979        1.82417
C         11.43505       -7.59962        3.59210
C         10.42770       -8.49536        3.97252
C         10.86384       -9.34137        5.01950
C         12.15036       -9.03942        5.40285
S         12.81867       -7.73176        4.64062
C         12.59001       -9.99373        6.34120
C         11.56916      -10.88527        6.58053
C         10.40463      -10.51259        5.77167
C          9.21019      -11.13256        5.70294
C          8.18657      -10.68694        4.82492
N          7.35459      -10.33138        4.09662
C          8.91880      -12.28051        6.49055
N          8.68319      -13.21715        7.13519
C         11.96990      -11.89908        7.47891
C         13.32674      -11.78596        7.79143
S         14.02255      -10.34404        7.10467
C         14.13946      -12.60918        8.62185
C         14.85165      -13.66576        8.18838
C         15.70957      -14.61881        8.98006
C         16.21415      -14.50056       10.23167
C         17.08053      -15.46559       10.82821
N         17.79277      -16.22347       11.34499
C         15.95120      -13.37542       11.06015
N         15.72515      -12.46075       11.73770
C         15.98773      -15.69497        8.07406
C         15.49462      -15.46178        6.81008
C         15.73875      -16.52246        5.90680
C         16.43563      -17.54054        6.53027
S         16.75323      -17.19219        8.18613
C         14.82899      -14.17573        6.73785
O         14.37464      -13.65048        5.74056
H          2.76256       -2.73595      -10.72281
H          0.85013       -1.30019       -9.56843
H          7.41542       -3.72376       -7.96133
H          5.47073       -2.51381       -4.86570
H          8.22112       -3.86361        0.58792
H         18.08942       -6.25257        0.36956
H         17.37948       -4.96918       -1.63223
H          9.47989       -8.56901        3.45213
H         11.34985      -12.70450        7.85207
H         14.13226      -12.31142        9.66192
H         15.42487      -16.55086        4.87007
H         16.77124      -18.47706        6.10265
