67

C          6.93650       -3.32266        3.15351
Si         6.87678       -2.50280        1.49567
C          6.14303       -0.80991        1.70834
C          8.49295       -2.49040        0.56058
C          9.80469       -2.03435        0.74503
C         10.60345       -2.40360       -0.33831
C         12.01586       -2.14650       -0.51251
S         13.04772       -3.19876       -1.41882
C         14.42912       -2.22825       -1.13132
C         14.11154       -1.14503       -0.35701
F         14.98693       -0.24805        0.00862
C         12.75191       -1.09961        0.00104
F         12.24384       -0.14573        0.73589
S          9.68367       -3.24195       -1.55200
C          8.29097       -3.16436       -0.62334
C          6.98890       -3.70938       -0.83823
S          6.37342       -4.60977       -2.10791
C          4.87623       -4.87294       -1.26745
C          3.86264       -5.73744       -1.85180
N          2.55167       -5.49148       -1.58347
N          1.47644       -6.30465       -2.09372
C          1.67054       -7.40273       -2.87699
C          0.54250       -8.20161       -3.32841
C          0.47950       -9.56303       -3.63119
C         -0.82188       -9.91212       -4.00787
C         -1.71796       -8.86793       -4.01013
S         -0.99966       -7.42424       -3.55317
C         -3.06057       -9.19960       -4.37163
S         -4.44168       -8.26506       -4.52061
C         -5.39019       -9.64636       -4.99548
C         -6.79790       -9.52208       -5.30230
S         -7.47770       -8.08394       -5.98095
C         -9.05555       -8.74574       -6.01378
C         -9.05829      -10.02892       -5.53545
F        -10.13744      -10.75880       -5.45545
C         -7.78312      -10.47351       -5.14067
F         -7.56946      -11.66756       -4.65358
C         -4.62699      -10.81452       -5.00516
C         -3.30065      -10.52492       -4.65800
Si        -1.70977      -11.48498       -4.48308
C         -1.11812      -12.26987       -6.05150
C         -1.70941      -12.76208       -3.14168
C          3.01513       -7.70587       -3.15598
N          3.55339       -8.70661       -3.87345
O          4.91882       -8.53559       -3.81171
N          5.25826       -7.44013       -3.05266
C          4.10740       -6.88047       -2.64420
C          4.83143       -4.15461       -0.07089
C          6.05767       -3.51554        0.15815
H          7.52632       -2.73566        3.86448
H          7.38650       -4.31814        3.08951
H          5.93165       -3.43855        3.57201
H          5.12932       -0.86919        2.11652
H          6.08967       -0.27749        0.75380
H          6.74460       -0.20586        2.39494
H         10.17733       -1.49761        1.60973
H         15.39148       -2.49996       -1.53900
H          1.32187      -10.24141       -3.55687
H         -9.89213       -8.16754       -6.37878
H         -5.02234      -11.79029       -5.26306
H         -1.16170      -11.56860       -6.89047
H         -1.73134      -13.13837       -6.31239
H         -0.08269      -12.61192       -5.95675
H         -2.02672      -12.33427       -2.18583
H         -0.70863      -13.18278       -2.99992
H         -2.38665      -13.58781       -3.38021
H          3.97314       -4.15535        0.59317
