95

C          8.82294       -0.53402      -11.27559
C          9.92518       -0.52836      -12.13404
C         11.20685       -0.73685      -11.63193
C         11.39724       -0.93306      -10.26561
C         10.31096       -0.89033       -9.38302
C         10.53364       -0.94344       -7.99989
C          9.47013       -0.71037       -7.14378
C          8.16485       -0.64343       -7.65740
C          7.90097       -0.65018       -9.01553
C          8.99329       -0.70602       -9.89496
C          7.18571       -0.47460       -6.55903
O          5.97817       -0.43390       -6.66276
C          8.00330       -0.41014       -5.30158
C          9.40441       -0.27425       -5.72828
C         10.33631        0.54011       -5.17541
C          9.95961        1.54187       -4.23419
N          9.63215        2.41784       -3.54840
C         11.70393        0.54947       -5.58270
N         12.81904        0.51524       -5.89226
C          7.43462       -0.65828       -4.10657
C          8.15062       -0.91073       -2.88748
C          7.75291       -0.60385       -1.58049
C          8.78921       -0.90236       -0.64988
C          9.84051       -1.49819       -1.27655
S          9.64227       -1.83852       -2.90520
C         10.96224       -1.72295       -0.51674
C         10.89976       -1.31703        0.77861
S          9.27604       -0.76399        1.00373
C         12.16561       -1.45720        1.40772
C         13.13331       -1.93077        0.51136
S         12.41838       -2.38459       -1.02443
C         14.59786       -2.12609        0.72888
C         15.59903       -1.98501       -0.26781
C         16.99766       -2.22735       -0.00612
N         17.88468       -2.11726       -1.02056
C         17.45734       -1.79656       -2.25300
C         16.14501       -1.51791       -2.49083
N         15.22673       -1.59696       -1.51005
C         17.49042       -2.56378        1.27817
C         16.52155       -2.65971        2.31964
C         15.05642       -2.45220        2.03810
N         14.30057       -2.62056        3.13963
S         15.30549       -2.95029        4.40170
N         16.75296       -2.94123        3.61607
C         18.91975       -2.83300        1.60898
C         19.60879       -2.56941        2.79842
C         20.93088       -3.08650        2.75275
C         21.18580       -3.66498        1.54733
S         19.93212       -3.65219        0.43434
C         22.41594       -4.25997        1.40032
C         23.23119       -4.21326        2.48743
S         22.36877       -3.31051        3.68014
C         24.42716       -4.93619        2.25195
C         24.46955       -5.45561        0.95901
S         22.99849       -5.09717        0.06144
C         25.44918       -6.25321        0.27992
C         26.78597       -6.18217        0.41818
C         27.82848       -6.89709       -0.37904
C         27.75002       -8.14139       -0.91302
C         28.85025       -8.77719       -1.55781
N         29.74236       -9.29432       -2.08314
C         26.57649       -8.95268       -0.81988
N         25.62993       -9.60555       -0.75121
C         29.06573       -6.06609       -0.30260
C         28.88057       -5.10304        0.69216
C         29.83198       -4.16641        1.06258
C         31.04594       -4.16482        0.38250
C         32.03870       -3.23282        0.71078
C         33.24779       -3.21886        0.01943
C         33.47494       -4.13584       -1.00390
C         32.49466       -5.07184       -1.34069
C         31.26950       -5.10723       -0.66113
C         30.26758       -6.04959       -0.99828
C         27.53486       -5.17737        1.25008
O         27.19124       -4.52610        2.21161
H          7.83327       -0.35988      -11.69266
H          9.78379       -0.34958      -13.19691
H         12.06403       -0.72566      -12.30084
H         12.41083       -1.07114       -9.89245
H         11.54542       -1.07535       -7.62949
H          6.88182       -0.53320       -9.37270
H          6.34802       -0.72452       -4.04902
H          6.81729       -0.12479       -1.31705
H         12.35651       -1.17233        2.43410
H         18.21020       -1.76892       -3.03121
H         15.78435       -1.22589       -3.46988
H         19.18435       -2.08670        3.66959
H         25.19088       -5.06102        3.00547
H         25.02910       -6.92468       -0.46417
H         29.61047       -3.45074        1.85097
H         31.87696       -2.50748        1.50599
H         34.01163       -2.49083        0.27956
H         34.41900       -4.12158       -1.54214
H         32.70088       -5.77735       -2.14369
H         30.46554       -6.73549       -1.81628
