91

C          0.40084        3.58905       -4.57447
C         -0.61953        4.25434       -3.89048
C         -0.52150        4.46531       -2.51810
C          0.60642        4.03019       -1.82460
C          1.66194        3.40371       -2.50040
C          2.84207        3.07887       -1.81232
C          3.92731        2.59477       -2.52348
C          3.77161        2.26879       -3.87960
C          2.60708        2.53079       -4.58218
C          1.55362        3.15967       -3.89989
C          5.01332        1.66023       -4.40658
O          5.19167        1.23934       -5.53030
C          5.96580        1.62391       -3.24494
C          5.36757        2.45282       -2.18982
C          6.02313        3.27069       -1.32851
C          7.42365        3.51724       -1.43926
N          8.54750        3.78147       -1.52890
C          5.36766        4.01633       -0.31743
N          4.83405        4.59455        0.54411
C          7.00603        0.77246       -3.26459
C          7.79855        0.43188       -2.12479
C          7.47429        0.37166       -0.78681
C          8.59020        0.11441        0.06994
S          8.27703        0.19165        1.80718
C          8.68739        1.90819        2.14708
C          9.76561       -0.17802       -0.61997
S          9.40778       -0.09795       -2.32798
C         11.15990       -0.56199       -0.19906
C         12.34424       -0.25945       -0.93716
C         13.66162       -0.71325       -0.54874
N         14.71890       -0.48831       -1.36539
C         14.52755        0.15241       -2.53109
C         13.30219        0.64270       -2.87136
N         12.23341        0.46353       -2.07408
C         13.90379       -1.39334        0.66184
C         12.75520       -1.72284        1.43606
C         11.36720       -1.34922        0.97151
N         10.42843       -1.89411        1.76284
S         11.16850       -2.59322        3.05251
N         12.73465       -2.38369        2.60876
C         15.26058       -1.79415        1.11541
C         16.36180       -2.19385        0.36996
C         17.53131       -2.41450        1.15665
S         19.06686       -2.87448        0.41624
C         20.14135       -1.54628        1.00711
C         17.30651       -2.19782        2.50034
S         15.69203       -1.70618        2.77770
C         18.19091       -2.20258        3.61123
C         18.51594       -3.29016        4.32434
C         19.42205       -3.42680        5.49898
C         20.21473       -2.47458        6.05342
C         21.11371       -2.73912        7.12752
N         21.85528       -2.93634        8.00030
C         20.27094       -1.12306        5.60318
N         20.32786       -0.02244        5.24423
C         19.34793       -4.86280        5.92431
C         18.53782       -5.55941        5.02175
C         18.29963       -6.92444        5.08444
C         18.88213       -7.64848        6.12549
C         18.70132       -9.03485        6.22560
C         19.26253       -9.74749        7.28451
C         20.00148       -9.08177        8.25842
C         20.20064       -7.70336        8.16675
C         19.66051       -6.96865        7.10040
C         19.88406       -5.57747        6.98946
C         17.95978       -4.65629        4.02689
O         17.17119       -5.00399        3.17338
H          0.30129        3.44123       -5.64791
H         -1.48990        4.61655       -4.43192
H         -1.31502        4.98571       -1.98736
H          0.66907        4.22218       -0.75478
H          2.89850        3.27298       -0.74533
H          2.54427        2.29749       -5.64148
H          7.24045        0.25857       -4.19823
H          6.47627        0.55852       -0.41088
H          8.34073        2.16142        3.15263
H          8.19324        2.57333        1.43578
H          9.76853        2.05343        2.09854
H         15.39149        0.25683       -3.17625
H         13.12734        1.17993       -3.79542
H         16.34275       -2.28498       -0.70979
H         21.09191       -1.58223        0.46961
H         20.35988       -1.66428        2.07103
H         19.67861       -0.57030        0.83819
H         18.58408       -1.22051        3.82770
H         17.67006       -7.39961        4.33647
H         18.12364       -9.57232        5.47622
H         19.11875      -10.82302        7.35046
H         20.42795       -9.63668        9.09012
H         20.78678       -7.20779        8.93852
H         20.47727       -5.10461        7.76359
