113

C         -0.28240        4.26883        5.38815
C         -1.00848        3.76723        6.46935
C         -0.64039        2.56132        7.05916
C          0.44683        1.84200        6.56208
C          1.17361        2.31280        5.45975
C          2.23391        1.55419        4.92715
C          2.89950        2.01273        3.80174
C          2.56634        3.27274        3.28024
C          1.53916        4.05331        3.78215
C          0.80926        3.55785        4.86967
C          3.48975        3.63885        2.18978
O          3.45999        4.65479        1.52936
C          4.50313        2.53244        2.14646
C          3.94401        1.41961        2.92385
C          4.08578        0.09908        2.66404
C          4.79962       -0.37779        1.52220
N          5.32976       -0.79478        0.57858
C          3.44459       -0.91045        3.43717
N          2.93946       -1.72475        4.09233
C          5.71941        2.82777        1.66488
C          6.90420        2.06265        1.88076
C          7.28784        1.24999        2.95071
C          8.56801        0.73001        2.73505
C          9.19662        1.20003        1.60615
S          8.19543        2.19953        0.70732
C         10.57636        0.84243        1.46765
C         11.11344        0.08252        2.48386
Si         9.75539       -0.35275        3.68342
C          9.99448        0.07075        5.45491
C          9.26756       -2.15244        3.55487
C         12.50071       -0.09817        2.39050
C         13.01209        0.53422        1.25208
S         11.71587        1.22437        0.30356
C         14.41616        0.62844        0.77678
C         15.34978       -0.42494        0.91669
C         16.70805       -0.32093        0.44130
N         17.53583       -1.38005        0.59077
C         17.10833       -2.50189        1.21457
C         15.82268       -2.59930        1.66717
N         14.94532       -1.57283        1.51574
C         15.31698       -3.76710        2.32027
N         14.91838       -4.72420        2.84615
C         18.08265       -3.53913        1.37611
N         18.85697       -4.39127        1.52591
C         17.21637        0.84464       -0.18264
C         16.30920        1.93077       -0.33642
C         14.89267        1.82866        0.16476
N         14.21367        2.97461       -0.02242
S         15.19434        4.03160       -0.81553
N         16.56790        3.12493       -0.90153
C         18.61501        1.01825       -0.64864
C         19.11012        1.71961       -1.75369
C         20.50920        1.66077       -1.78845
C         21.07770        0.95155       -0.75588
S         19.92825        0.36284        0.30372
C         22.50623        0.93701       -0.71391
C         23.13574        1.67375       -1.68801
Si        21.86385        2.37760       -2.85019
C         21.94111        1.59402       -4.53917
C         21.91616        4.20823       -3.04416
C         24.51754        1.77886       -1.52328
C         24.96232        0.95012       -0.49645
S         23.59804        0.22918        0.34220
C         26.26674        0.63172       -0.00845
C         27.37344        0.46175       -0.75722
C         28.69014       -0.09004       -0.32790
C         29.29721        0.07139        0.87515
C         30.60159       -0.43138        1.15420
N         31.66161       -0.84413        1.38083
C         28.70290        0.81355        1.93917
N         28.21623        1.41506        2.80629
C         29.29820       -0.71995       -1.54358
C         28.53998       -0.33325       -2.65193
C         28.78323       -0.73570       -3.95326
C         29.85892       -1.58605       -4.17938
C         30.13523       -2.03382       -5.47705
C         31.21784       -2.87456       -5.71513
C         32.03178       -3.27294       -4.65805
C         31.75985       -2.84457       -3.35406
C         30.67048       -2.00151       -3.08694
C         30.37311       -1.57129       -1.76870
C         27.42605        0.51966       -2.25602
O         26.77288        1.15567       -3.05415
H         -0.58804        5.21459        4.94490
H         -1.86486        4.31827        6.85018
H         -1.20602        2.17327        7.90273
H          0.70894        0.89772        7.03593
H          2.49959        0.61491        5.40280
H          1.31569        5.01624        3.33111
H          5.84951        3.77560        1.13829
H          6.68337        1.07433        3.83111
H         10.29495        1.11521        5.58103
H         10.76489       -0.55458        5.91643
H          9.06998       -0.07553        6.02336
H          9.10342       -2.44259        2.51222
H          8.34226       -2.34575        4.10661
H         10.04818       -2.79962        3.96612
H         13.11212       -0.63213        3.10821
H         18.48679        2.25409       -2.46115
H         21.95470        0.50189       -4.46787
H         22.84484        1.90510       -5.07289
H         21.07690        1.88097       -5.14595
H         21.87582        4.71511       -2.07528
H         21.07871        4.57244       -3.64672
H         22.84020        4.52310       -3.54065
H         25.16369        2.39178       -2.13726
H         26.30210        0.40465        1.05416
H         28.13369       -0.39859       -4.75674
H         29.50562       -1.73325       -6.31248
H         31.42608       -3.21651       -6.72631
H         32.88497       -3.92050       -4.84842
H         32.41470       -3.17260       -2.55039
H         30.99386       -1.93824       -0.95767
