119

C         21.60085      -10.66493        7.13942
C         21.81047      -10.03147        8.36721
C         21.08772       -8.88909        8.70070
C         20.17275       -8.35435        7.79660
C         20.00208       -8.93361        6.53399
C         19.22381       -8.27717        5.57175
C         19.25145       -8.74331        4.26994
C         19.82156       -9.99490        3.99084
C         20.53899      -10.70908        4.93507
C         20.70503      -10.12889        6.20308
C         19.63940      -10.32808        2.56120
O         19.95094      -11.36549        2.01576
C         18.97513       -9.12516        1.94655
C         19.00834       -8.07112        2.96674
C         19.35484       -6.77340        2.76903
C         19.92178       -6.35073        1.52978
N         20.47544       -6.02438        0.56417
C         19.36571       -5.79889        3.81016
N         19.33409       -5.00968        4.66018
C         18.39416       -9.21835        0.73900
C         17.56632       -8.22357        0.12837
C         16.74264       -7.25706        0.67218
C         15.95974       -6.51201       -0.29012
C         16.18487       -6.98363       -1.58445
S         17.45177       -8.16310       -1.58182
C         15.41771       -6.50813       -2.66676
S         15.69893       -7.13076       -4.31709
C         14.47385       -8.46864       -4.33916
C         14.38222       -5.56696       -2.48357
C         14.21180       -5.05221       -1.19777
C         15.01049       -5.48209       -0.12555
S         14.77087       -4.82351        1.52517
C         15.21179       -3.08021        1.24627
S         12.92144       -3.92615       -1.16592
C         12.48432       -4.17990       -2.78949
C         13.38016       -5.03334       -3.39252
C         11.26658       -3.60052       -3.30223
C         10.39855       -4.06785       -4.26720
C          9.14373       -3.33991       -4.27707
N          8.09389       -3.65663       -5.08993
C          8.38096       -4.72055       -5.90174
C          7.29055       -5.12322       -6.82461
O          6.20116       -4.56365       -6.85046
C          7.54131       -6.25231       -7.74121
C          8.70144       -6.90921       -7.74555
C          9.80320       -6.55053       -6.83148
O         10.84740       -7.18931       -6.87449
C          9.59209       -5.42020       -5.89455
N         10.64921       -5.14475       -5.06616
C          9.11639       -2.31582       -3.35268
S         10.65979       -2.13590       -2.63583
C          8.02839       -1.44665       -2.98523
C          6.68139       -1.73362       -3.00305
C          5.84333       -0.58335       -2.76818
C          6.62330        0.54324       -2.49525
S          8.29051        0.13778       -2.42088
C          6.03860        1.80401       -2.34021
S          7.06453        3.25421       -2.10834
C          7.14504        3.26704       -0.30403
C          4.65959        1.99330       -2.53390
C          3.87223        0.87100       -2.79751
C          4.44543       -0.41186       -2.84426
S          3.41023       -1.86214       -3.00424
C          3.45665       -2.12456       -4.80009
S          2.23233        1.34009       -3.07717
C          2.58365        3.01768       -3.00129
C          3.86833        3.19277       -2.53958
C          1.55911        3.95054       -3.33291
C          1.74672        5.17829       -3.85020
C          0.71919        6.22070       -4.09126
C         -0.55238        6.02929       -4.51860
C         -1.42778        7.11255       -4.80639
N         -2.13026        8.00600       -5.04121
C         -1.09103        4.73119       -4.78173
N         -1.52436        3.67920       -4.97966
C          1.42179        7.53395       -3.97689
C          2.80022        7.29115       -4.00509
C          3.76157        8.28297       -3.89232
C          3.32944        9.60355       -3.74474
C          4.25606       10.64770       -3.60696
C          3.82486       11.96678       -3.47242
C          2.46366       12.25598       -3.47149
C          1.52594       11.22700       -3.59006
C          1.93516        9.89122       -3.72337
C          0.98875        8.84560       -3.82799
C          3.06626        5.85183       -4.10800
O          4.13874        5.36907       -4.39879
H         22.18657      -11.55033        6.90070
H         22.55138      -10.42219        9.06029
H         21.25606       -8.39412        9.65395
H         19.64021       -7.44376        8.06628
H         18.71143       -7.35685        5.83478
H         21.03407      -11.63647        4.65993
H         18.50866      -10.15454        0.18827
H         16.62993       -7.11319        1.73918
H         13.45990       -8.06529       -4.40987
H         14.55383       -9.08958       -3.44262
H         14.65616       -9.09994       -5.21291
H         16.24653       -3.00040        0.90658
H         15.09498       -2.52799        2.18187
H         14.56674       -2.59571        0.51273
H         13.29170       -5.33489       -4.43065
H          6.72932       -6.51960       -8.40990
H          8.88663       -7.73932       -8.41955
H          6.29409       -2.70600       -3.28469
H          7.58001        2.33811        0.07291
H          6.14643        3.40128        0.11885
H          7.77520        4.10099        0.01710
H          2.54684       -2.65813       -5.09227
H          4.31542       -2.74462       -5.07058
H          3.49534       -1.18397       -5.35510
H          4.29242        4.16580       -2.32579
H          0.55220        3.60451       -3.11949
H          4.81677        8.02221       -3.90004
H          5.32506       10.44248       -3.60055
H          4.55305       12.76826       -3.37098
H          2.12878       13.28623       -3.37775
H          0.46813       11.48354       -3.58323
H         -0.06586        9.09665       -3.76931
