141

C          0.52111       -4.43498        6.65726
C         -0.74347       -3.85280        6.53941
C         -0.88451       -2.59412        5.96186
C          0.24003       -1.90099        5.51713
C          1.52137       -2.44631        5.67071
C          2.65143       -1.68795        5.32707
C          3.91122       -2.18551        5.61126
C          4.04082       -3.50642        6.07091
C          2.94951       -4.30083        6.38254
C          1.66814       -3.74674        6.23375
C          5.46795       -3.87288        6.17212
O          5.91696       -4.94849        6.50902
C          6.22592       -2.66351        5.70618
C          5.25809       -1.55863        5.64755
C          5.48725       -0.26044        5.95901
C          6.73530        0.18415        6.48478
N          7.72300        0.55691        6.96937
C          4.47545        0.74024        5.89834
N          3.64537        1.54703        5.80999
C          7.48016       -2.80185        5.25838
C          8.18949       -1.80863        4.51079
C          7.72637       -0.87505        3.57974
C          8.77900       -0.08234        3.11004
C         10.02142       -0.45091        3.57412
S          9.92765       -1.71812        4.67065
C         11.13571        0.20276        2.95371
C         10.83189        1.11768        1.97089
Si         8.97740        1.29867        1.86998
C          8.28007        1.08410        0.15601
C          7.35023        0.06817       -0.13364
C          6.87546       -0.12425       -1.43396
C          7.32038        0.69167       -2.46966
C          8.23870        1.70366       -2.20741
C          8.71397        1.90047       -0.90785
C          8.28145        2.92922        2.55495
C          7.10846        3.52437        2.04943
C          6.61541        4.72114        2.58575
C          7.27519        5.34377        3.64130
C          8.42708        4.76831        4.16735
C          8.92548        3.57430        3.63276
C         11.92930        1.48713        1.17885
C         13.09917        0.85473        1.61338
S         12.78849       -0.01933        3.09834
C         14.45319        0.84190        0.99390
C         15.35203       -0.25871        1.03026
C         16.64807       -0.22351        0.40065
N         17.45443       -1.30802        0.49035
C         17.07139       -2.38871        1.21114
C         15.83848       -2.43289        1.79415
N         14.98002       -1.38931        1.67810
C         15.37727       -3.55196        2.55922
N         15.03301       -4.47704        3.17051
C         18.03720       -3.43862        1.33567
N         18.80642       -4.29982        1.45867
C         17.12047        0.90481       -0.31174
C         16.23920        2.01921       -0.39959
C         14.88655        1.98918        0.26495
N         14.20780        3.13691        0.08076
S         15.14992        4.14533       -0.82158
N         16.47281        3.18478       -1.02995
C         18.47220        1.01889       -0.91403
C         18.89048        1.65469       -2.08935
C         20.28780        1.59029       -2.21883
C         20.91998        0.95414       -1.17327
S         19.84250        0.39397       -0.02773
C         22.34567        1.03584       -1.14886
C         22.90816        1.80687       -2.13466
Si        21.58429        2.32419       -3.34036
C         21.90631        1.34628       -4.95312
C         21.26374        0.11648       -5.18849
C         21.53414       -0.62222       -6.34446
C         22.44382       -0.14676       -7.28575
C         23.09791        1.06209       -7.06738
C         22.84313        1.79731       -5.90635
C         21.49737        4.11559       -3.83515
C         20.99744        4.52767       -5.08655
C         20.99673        5.87537       -5.45992
C         21.47220        6.84444       -4.58269
C         21.94703        6.46768       -3.33043
C         21.96181        5.11881       -2.96011
C         24.26506        2.06522       -1.95086
C         24.78370        1.29584       -0.91298
S         23.49454        0.43723       -0.08618
C         26.10585        1.14982       -0.39233
C         27.25367        1.20687       -1.09117
C         28.64877        0.98886       -0.59983
C         29.12519        1.20703        0.65488
C         30.49925        1.05489        0.99919
N         31.61744        0.93146        1.28759
C         28.30658        1.67466        1.72580
N         27.64594        2.05613        2.59997
C         29.48097        0.66345       -1.80094
C         28.70806        0.90062       -2.93937
C         29.15242        0.74261       -4.24195
C         30.45774        0.31153       -4.43599
C         30.95506        0.14917       -5.73423
C         32.26305       -0.28057       -5.93576
C         33.07933       -0.55653       -4.84272
C         32.59272       -0.40448       -3.54113
C         31.28045        0.03361       -3.30961
C         30.77634        0.20332       -1.99620
C         27.35469        1.30466       -2.58958
O         26.54778        1.63494       -3.43067
H          0.60352       -5.41855        7.11543
H         -1.62051       -4.37952        6.90741
H         -1.86875       -2.14075        5.87329
H          0.10712       -0.91082        5.08460
H          2.51388       -0.70118        4.89571
H          3.09751       -5.30412        6.77268
H          7.99172       -3.75485        5.41183
H          6.69330       -0.79047        3.26726
H          6.99186       -0.60582        0.64214
H          6.16584       -0.92191       -1.63966
H          6.95640        0.53441       -3.48160
H          8.59305        2.33685       -3.01718
H          9.43871        2.69797       -0.74356
H          6.55328        3.07304        1.22841
H          5.71124        5.16835        2.17877
H          6.89046        6.27238        4.05620
H          8.93921        5.24658        4.99944
H          9.82532        3.15494        4.08353
H         11.87067        2.10327        0.28955
H         18.22157        2.17102       -2.76858
H         20.56202       -0.29836       -4.46655
H         21.04151       -1.57812       -6.50337
H         22.65334       -0.72498       -8.18173
H         23.81866        1.42885       -7.79405
H         23.39526        2.72511       -5.75642
H         20.62030        3.80247       -5.80771
H         20.62984        6.16493       -6.44155
H         21.47293        7.89121       -4.87463
H         22.31401        7.22349       -2.64033
H         22.35194        4.86634       -1.97364
H         24.84390        2.74346       -2.56297
H         26.13431        0.91454        0.66705
H         28.48207        0.94854       -5.07232
H         30.32761        0.35902       -6.59867
H         32.64334       -0.39872       -6.94776
H         34.10123       -0.89059       -5.00311
H         33.25494       -0.62622       -2.70671
H         31.42978       -0.04400       -1.16431
