101

C          2.52458        7.86445       -3.82673
C          1.30420        7.60186       -3.20071
C          1.27424        7.06574       -1.91605
C          2.46435        6.76968       -1.25497
C          3.69619        6.98332       -1.88455
C          4.87792        6.55255       -1.26752
C          6.05669        6.58596       -1.99328
C          6.09518        7.25793       -3.22319
C          4.96073        7.75983       -3.83254
C          3.73231        7.55739       -3.18846
C          7.46186        7.23295       -3.77864
O          7.83149        7.76289       -4.80504
C          8.28239        6.43203       -2.80205
C          7.32230        5.81194       -1.88227
C          7.25393        4.50178       -1.53232
C          8.06068        3.51638       -2.15768
N          8.71633        2.69235       -2.65089
C          6.32206        4.00588       -0.57969
N          5.62253        3.64767        0.28018
C          9.61576        6.58654       -2.83206
C         10.57600        6.12076       -1.87969
C         10.56337        5.10999       -0.93728
C         11.80512        4.85673       -0.26978
C         12.24811        3.86054        0.64314
C         13.63282        3.79684        0.97497
C         14.41558        4.85874        0.51430
N         13.99471        5.86654       -0.26234
C         12.72392        5.80407       -0.67529
S         12.11245        6.91207       -1.80470
S         16.04623        4.80629        1.00792
C         15.80628        3.30557        1.73104
C         14.50550        2.89013        1.66190
F         14.14517        1.73278        2.14446
F         16.75913        2.60739        2.29174
C         11.23605        2.93032        1.22291
C          9.97712        3.18970        1.75858
C          9.31027        2.01094        2.27204
N          8.09045        2.03470        2.88254
C          7.54043        3.27964        2.91122
C          6.19111        3.37574        3.52496
O          5.60457        2.41485        4.00641
C          5.55063        4.70575        3.57726
C          6.13311        5.78739        3.05916
C          7.44188        5.70996        2.38253
O          7.86986        6.69377        1.79060
C          8.16450        4.41447        2.39350
N          9.40966        4.43307        1.80790
C         10.04222        0.85893        2.08506
S         11.49881        1.22048        1.24369
C          9.70830       -0.49495        2.47682
C         10.55398       -1.46389        2.99061
C          9.87592       -2.68595        3.33334
C         10.28612       -3.90648        3.89511
C          9.37929       -4.95675        4.12622
C          8.06201       -4.70714        3.76190
N          7.61382       -3.56342        3.21813
C          8.52887       -2.59648        3.01851
S          8.10612       -1.10266        2.33965
S          7.00919       -6.01096        4.08340
C          8.28357       -6.93612        4.70306
C          9.47894       -6.27518        4.65836
F         10.60076       -6.80258        5.07339
F          8.14360       -8.14778        5.17496
C         11.69377       -4.09656        4.25699
C         12.61612       -4.59692        3.42004
C         13.99242       -5.05964        3.69545
C         14.85984       -4.53087        4.59259
C         16.19643       -4.99673        4.73948
N         17.28526       -5.38019        4.86614
C         14.51243       -3.41657        5.41250
N         14.21474       -2.50780        6.07109
C         14.28493       -6.10988        2.67275
C         13.27727       -6.06233        1.69820
C         13.20763       -6.91116        0.60854
C         14.20742       -7.87088        0.46568
C         14.18421       -8.75383       -0.62115
C         15.19245       -9.70118       -0.78321
C         16.22503       -9.78348        0.14663
C         16.25120       -8.92405        1.24858
C         15.25296       -7.95447        1.42932
C         15.27456       -7.07486        2.53866
C         12.27556       -5.04893        2.03241
O         11.37520       -4.68032        1.30900
H          2.52101        8.27237       -4.83529
H          0.37331        7.80644       -3.72325
H          0.32214        6.85690       -1.43426
H          2.41581        6.32452       -0.26287
H          4.82949        6.11013       -0.27804
H          5.02730        8.21455       -4.81693
H         10.02108        7.19893       -3.64281
H          9.72378        4.47879       -0.74990
H          4.57371        4.74805        4.04780
H          5.65578        6.76123        3.08429
H         11.61464       -1.30627        3.14564
H         11.89972       -3.90215        5.30503
H         12.38354       -6.82668       -0.09461
H         13.38218       -8.70733       -1.35563
H         15.17217      -10.37172       -1.63874
H         17.01460      -10.51889        0.01305
H         17.06911       -9.01544        1.96073
H         16.06665       -7.18943        3.27244
