99

C          0.00423        3.68298       -2.17841
C         -0.65732        3.93108       -3.38319
C         -0.07437        3.56336       -4.59303
C          1.18173        2.96067       -4.60790
C          1.88376        2.75262       -3.41506
C          3.20325        2.28000       -3.45831
C          3.94457        2.26394       -2.29051
C          3.30657        2.51390       -1.06392
C          1.98507        2.91422       -0.97506
C          1.28034        3.10361       -2.17226
C          4.26293        2.36507        0.05198
O          4.01729        2.46163        1.23543
C          5.57350        2.01783       -0.59197
C          5.40621        2.22342       -2.03357
C          6.32323        2.74205       -2.88772
C          7.53112        3.33205       -2.40824
N          8.48215        3.87498       -2.02535
C          6.10770        2.84970       -4.29059
N          5.94290        2.89842       -5.43834
C          6.53291        1.43841        0.14557
C          7.68925        0.78473       -0.38027
C          7.89645        0.10597       -1.58893
C          9.20661       -0.40794       -1.68587
C          9.90559       -0.19903       -0.52147
S          9.11265        0.69492        0.62695
C         11.16271       -0.82386       -0.62729
C         11.27909       -1.39724       -1.87298
C         10.04906       -1.15012       -2.62893
C          9.76910       -1.48175       -3.90408
C         10.69963       -2.17701       -4.72159
N         11.46434       -2.74696       -5.38471
C          8.52540       -1.12120       -4.50028
N          7.50639       -0.80525       -4.94163
C         12.53735       -2.01850       -2.03371
C         13.30804       -1.91298       -0.87007
S         12.45908       -1.04865        0.37885
C         14.65601       -2.38120       -0.59106
N         15.02907       -2.69743        0.68073
N         16.35263       -3.14054        1.03342
C         17.35661       -3.27063        0.12587
C         17.00501       -2.97552       -1.20771
C         15.66119       -2.52815       -1.56256
N         15.63587       -2.30413       -2.88596
O         16.89415       -2.61476       -3.35516
N         17.72330       -3.03459       -2.34047
C         18.67171       -3.68851        0.58276
C         19.00613       -4.50623        1.66782
C         20.40569       -4.67171        1.76765
C         21.06526       -3.95643        0.79329
S         20.09173       -3.08817       -0.22183
C         22.45323       -4.11426        0.95952
C         22.67309       -4.92555        2.04465
C         21.39330       -5.34945        2.60996
C         21.18319       -6.16705        3.66009
C         22.25941       -6.75465        4.38554
N         23.12637       -7.22487        4.99557
C         19.87212       -6.48328        4.10643
N         18.80267       -6.73855        4.47486
C         24.04561       -5.04967        2.31994
C         24.82987       -4.32781        1.41592
S         23.82162       -3.53050        0.22648
C         26.23669       -4.07716        1.36907
C         27.20060       -4.90953        1.79652
C         28.65339       -4.64423        1.96648
C         29.43598       -3.84443        1.20072
C         30.84924       -3.76472        1.36613
N         31.99828       -3.69933        1.50077
C         28.92127       -3.07655        0.11694
N         28.49603       -2.44552       -0.76008
C         29.13015       -5.59260        3.01985
C         28.12405       -6.54224        3.23249
C         28.21042       -7.57702        4.14706
C         29.38013       -7.69016        4.89578
C         29.52422       -8.72883        5.82454
C         30.69976       -8.86095        6.56021
C         31.73852       -7.95212        6.37959
C         31.60437       -6.90088        5.46807
C         30.43164       -6.74799        4.71230
C         30.28757       -5.68986        3.78254
C         26.96787       -6.27224        2.37906
O         26.06843       -7.05707        2.16684
H         -0.46918        3.98860       -1.24764
H         -1.62581        4.42471       -3.37844
H         -0.58694        3.76501       -5.53030
H          1.62823        2.70200       -5.56677
H          3.64128        2.01988       -4.41677
H          1.54806        3.14684       -0.00787
H          6.39991        1.39889        1.22840
H          7.12242       -0.01264       -2.33542
H         12.89035       -2.52025       -2.92823
H         18.25679       -4.94351        2.31918
H         24.46112       -5.60253        3.15100
H         26.49776       -3.08457        1.01243
H         27.37938       -8.26704        4.26677
H         28.72254       -9.44900        5.97835
H         30.80427       -9.67693        7.27097
H         32.65798       -8.06283        6.94911
H         32.43464       -6.20758        5.34745
H         31.09578       -4.97027        3.69280
