98

C         -0.63391        1.02387       -3.67843
C         -1.66068        1.32969       -2.78328
C         -1.37928        1.52339       -1.43355
C         -0.07163        1.39794       -0.96701
C          0.96455        1.04322       -1.83940
C          2.24921        0.78502       -1.33395
C          3.20846        0.25480       -2.18000
C          2.93998        0.17841       -3.55671
C          1.70738        0.49012       -4.10278
C          0.68288        0.86648       -3.22520
C          4.10469       -0.36260       -4.28149
O          4.20654       -0.50646       -5.48152
C          5.13179       -0.65732       -3.22899
C          4.46718       -0.49873       -1.92966
C          4.63475       -1.28379       -0.83677
C          5.33580       -2.52349       -0.92561
N          5.83313       -3.56800       -1.01126
C          4.01193       -1.02357        0.41731
N          3.53119       -0.78877        1.44678
C          6.40670       -0.84109       -3.60670
C          7.53254       -0.90235       -2.73108
C          7.77038       -0.30870       -1.48569
C          9.02997       -0.67213       -0.96316
C          9.73602       -1.43785       -1.85733
S          8.93648       -1.79868       -3.26287
C         11.01479       -1.69735       -1.32893
C         11.11480       -1.10376       -0.08598
C          9.84942       -0.44223        0.23001
C          9.49969        0.19680        1.36401
C         10.40068        0.32711        2.45639
N         11.14600        0.42798        3.33928
C          8.19868        0.74702        1.52536
N          7.12325        1.17509        1.61523
C         12.39374       -1.31187        0.47936
C         13.21796       -2.04050       -0.38286
S         12.37391       -2.48478       -1.84006
C         14.60955       -2.46793       -0.20440
C         15.15451       -2.72503        1.03995
N         16.42621       -3.12984        1.24453
C         17.18156       -3.28488        0.14316
N         16.77378       -3.07361       -1.11677
C         15.49694       -2.65590       -1.25349
C         18.55942       -3.73642        0.30935
C         19.34605       -4.49391       -0.56476
C         20.62586       -4.72639       -0.02027
C         20.76842       -4.10688        1.20231
S         19.43008       -3.29690        1.74649
C         22.04898       -4.38610        1.71390
C         22.70610       -5.20649        0.82935
C         21.86273       -5.44052       -0.34230
C         22.16259       -6.13594       -1.45736
C         23.42434       -6.77074       -1.63006
N         24.44489       -7.30720       -1.77456
C         21.23223       -6.27358       -2.52476
N         20.47465       -6.39472       -3.39529
C         23.94656       -5.61930        1.34760
C         24.22252       -5.02472        2.58477
S         22.89503       -4.00555        3.08870
C         25.31901       -5.19147        3.48871
C         26.58338       -5.45568        3.12084
C         27.71574       -5.93384        3.95045
C         28.02197       -5.56218        5.21594
C         29.20050       -6.00245        5.88202
N         30.16251       -6.36571        6.42396
C         27.21885       -4.64199        5.95262
N         26.55613       -3.90158        6.55014
C         28.55316       -6.77842        3.04387
C         28.13671       -6.54239        1.72684
C         28.64664       -7.19556        0.61986
C         29.65403       -8.13637        0.82803
C         30.20118       -8.83633       -0.25495
C         31.22762       -9.75734       -0.05532
C         31.71336       -9.99070        1.22817
C         31.16293       -9.31809        2.32220
C         30.12662       -8.38873        2.14823
C         29.55527       -7.71542        3.25342
C         27.04876       -5.56553        1.70181
O         26.68050       -4.94689        0.72606
H         -0.88102        0.86785       -4.72659
H         -2.68535        1.40483       -3.13850
H         -2.18149        1.75252       -0.73650
H          0.12032        1.53263        0.09624
H          2.43509        0.92398       -0.27353
H          1.53429        0.36191       -5.16779
H          6.61817       -0.91706       -4.67534
H          7.05966        0.34935       -1.00403
H         12.72969       -0.94586        1.44469
H         14.57149       -2.62573        1.95212
H         15.21253       -2.46500       -2.28517
H         18.96616       -4.85333       -1.51478
H         24.61604       -6.32165        0.86854
H         25.04547       -5.18341        4.54046
H         28.24864       -6.98254       -0.36886
H         29.83370       -8.66774       -1.26570
H         31.65074      -10.28833       -0.90435
H         32.52346      -10.69989        1.37909
H         31.56118       -9.52307        3.31406
H         29.90705       -7.96484        4.24986
