107

C         -1.66851       -0.70504       -0.65663
C         -2.57683       -1.75999       -0.53307
C         -2.12407       -3.04370       -0.24857
C         -0.75843       -3.28315       -0.10173
C          0.17067       -2.24394       -0.25326
C          1.54860       -2.50537       -0.14293
C          2.47701       -1.48691       -0.32828
C          1.99212       -0.18990       -0.52856
C          0.64067        0.11615       -0.63350
C         -0.28913       -0.92746       -0.51999
C          3.10089        0.77262       -0.55202
O          2.99048        1.97633       -0.66953
C          4.36667       -0.03301       -0.40433
C          3.96963       -1.44103       -0.20165
C          4.72206       -2.51501        0.13254
C          4.29612       -3.85567       -0.10431
N          3.97194       -4.94291       -0.34299
C          5.97072       -2.42698        0.79792
N          6.94598       -2.44054        1.42724
C          5.51269        0.62417       -0.65712
C          6.89433        0.12657       -0.68495
C          7.70726        0.42894        0.41538
F          7.17501        1.17028        1.40310
C          9.03641       -0.02989        0.52436
O          9.81031        0.32656        1.60360
C          9.14086        0.20238        2.86732
C          9.59999       -0.82412       -0.49676
C          8.74175       -1.13436       -1.58361
C          7.44886       -0.60519       -1.73462
O          6.69133       -0.82777       -2.86073
C          7.41128       -0.59040       -4.08164
F          9.15561       -2.03640       -2.49300
C         10.99450       -1.37101       -0.51104
C         11.77751       -1.43846       -1.69090
C         12.94873       -2.27714       -1.81721
N         13.43563       -2.51041       -3.05544
C         12.94982       -1.82020       -4.11675
C         11.94634       -0.90582       -3.96301
N         11.35501       -0.71961       -2.75869
C         11.42569       -0.12434       -5.04325
N         11.00306        0.49883       -5.92716
C         13.56739       -2.09782       -5.37834
N         14.06092       -2.30501       -6.40721
C         13.59544       -2.86847       -0.70378
C         12.95793       -2.60591        0.55137
C         11.59981       -1.96029        0.63120
N         11.06635       -2.08930        1.85752
S         12.23765       -2.65993        2.86393
N         13.45106       -2.89095        1.77268
C         14.80428       -3.76765       -0.74250
C         14.85972       -4.88250        0.12556
F         13.73404       -5.25184        0.76478
C         16.00564       -5.66999        0.31830
O         16.09112       -6.64963        1.28346
C         15.41809       -6.34372        2.50879
C         17.09275       -5.51971       -0.55004
C         16.94879       -4.57662       -1.57924
C         15.90364       -3.62859       -1.61520
O         15.94070       -2.52278       -2.43294
C         16.71130       -2.62447       -3.62908
F         17.82847       -4.62196       -2.59636
C         18.28709       -6.40105       -0.45099
C         19.56443       -6.12195       -0.78069
C         20.68604       -7.07054       -0.94113
C         21.05688       -8.04453       -0.07850
C         22.24890       -8.80394       -0.25626
N         23.22271       -9.41674       -0.41205
C         20.33686       -8.29544        1.12800
N         19.76320       -8.49363        2.11372
C         21.47512       -6.56889       -2.10192
C         21.10943       -5.23411       -2.32526
C         21.60869       -4.46306       -3.35851
C         22.53738       -5.05069       -4.22644
C         23.06896       -4.32416       -5.29926
C         24.00490       -4.90433       -6.15516
C         24.41451       -6.21869       -5.95189
C         23.87993       -6.96545       -4.89893
C         22.93793       -6.40358       -4.02241
C         22.39125       -7.16438       -2.96375
C         20.06444       -4.83282       -1.36943
O         19.74069       -3.69758       -1.09477
H         -2.04904        0.29110       -0.87162
H         -3.64139       -1.57841       -0.65951
H         -2.83007       -3.86441       -0.14695
H         -0.42580       -4.29598        0.11937
H          1.84305       -3.51738        0.10884
H          0.32583        1.14436       -0.79186
H          5.46731        1.69984       -0.84700
H          9.87145       -0.12227        3.61424
H          8.33217       -0.53807        2.86480
H          8.75773        1.17898        3.17753
H          8.09815       -1.41022       -4.31255
H          7.94953        0.36524       -4.05865
H          6.68638       -0.54642       -4.90053
H         14.35767       -6.60506        2.44114
H         15.54510       -5.29559        2.80536
H         15.85517       -6.96549        3.29588
H         16.48580       -3.54737       -4.17604
H         17.78052       -2.53065       -3.41588
H         16.43654       -1.78777       -4.27787
H         18.03041       -7.40726       -0.12307
H         21.25821       -3.44325       -3.49488
H         22.76075       -3.29631       -5.47846
H         24.41738       -4.32729       -6.97923
H         25.15041       -6.66564       -6.61560
H         24.21554       -7.99234       -4.76688
H         22.67862       -8.20172       -2.85630
