100

C          0.02001        3.90313       -0.02286
C         -0.83028        3.92473        1.08569
C         -0.42267        3.36552        2.29372
C          0.82956        2.76292        2.39560
C          1.67261        2.68111        1.28039
C          2.86269        1.94350        1.35937
C          3.58583        1.71403        0.20156
C          3.24498        2.40085       -0.97365
C          2.11233        3.19125       -1.07274
C          1.27355        3.27828        0.04970
C          4.21517        2.09084       -2.04564
O          4.23176        2.56052       -3.16357
C          5.18951        1.11967       -1.43853
C          4.61504        0.70353       -0.15156
C          4.64861       -0.54022        0.38883
C          5.17862       -1.65333       -0.33000
N          5.55357       -2.57607       -0.92443
C          4.03738       -0.86813        1.63317
N          3.55168       -1.12650        2.65488
C          6.38843        0.93126       -2.01537
C          7.48626        0.25904       -1.39405
C          7.86562        0.20720       -0.04837
C          9.01777       -0.57997        0.14002
C          9.53324       -1.02143       -1.05588
S          8.63955       -0.59805       -2.39128
C         10.78015       -1.63591       -0.80566
C         11.05365       -1.56063        0.54166
C          9.89576       -0.99739        1.23166
C          9.63123       -0.97157        2.55276
C         10.53625       -1.50384        3.51023
N         11.26985       -1.94059        4.29611
C          8.38781       -0.47889        3.03918
N          7.35592       -0.07465        3.38561
C         12.37936       -1.95746        0.82184
C         13.05966       -2.33734       -0.34655
S         11.96877       -2.36098       -1.70512
C         14.46631       -2.71523       -0.46539
C         15.38833       -2.55755       -1.51438
C         15.04553       -1.94600       -2.80531
O         14.33497       -0.95942       -2.93060
O         15.56172       -2.56969       -3.89860
C         16.70182       -3.06560       -1.13373
C         16.69438       -3.63902        0.11862
S         15.18745       -3.51995        0.88157
C         17.99832       -2.98326       -1.91052
C         19.04492       -3.89678       -1.78301
C         20.12096       -3.54800       -2.62643
C         19.84731       -2.40773       -3.35191
S         18.37722       -1.71591       -3.02641
C         20.94220       -2.12538       -4.19315
C         21.91105       -3.07433       -3.97374
C         21.45311       -4.03654       -2.97890
C         22.10907       -5.11441       -2.50411
C         23.42233       -5.45489       -2.93215
N         24.50423       -5.73292       -3.25062
C         21.52854       -5.95735       -1.52021
N         21.04104       -6.63046       -0.70944
C         23.05354       -2.83182       -4.74663
C         22.87009       -1.77245       -5.63651
S         21.32948       -0.99064       -5.34362
C         23.73202       -1.24086       -6.64622
C         24.61880       -1.96055       -7.35839
C         25.66681       -1.48616       -8.30114
C         25.59456       -0.42532       -9.13411
C         26.60735       -0.12824      -10.09882
N         27.43196        0.11438      -10.87551
C         24.46859        0.44877       -9.17593
N         23.55051        1.16136       -9.19307
C         26.73357       -2.53339       -8.30106
C         26.22476       -3.67241       -7.66768
C         26.93630       -4.84403       -7.47553
C         28.24514       -4.89574       -7.95018
C         29.01087       -6.05864       -7.79174
C         30.31768       -6.11393       -8.27116
C         30.87241       -5.00666       -8.90778
C         30.12460       -3.83739       -9.06592
C         28.80612       -3.75746       -8.59576
C         28.04435       -2.57554       -8.75440
C         24.85726       -3.43865       -7.21140
O         24.09778       -4.31635       -6.85977
H         -0.32656        4.34075       -0.95678
H         -1.81919        4.36875        1.00302
H         -1.08783        3.37677        3.15368
H          1.11856        2.31181        3.34361
H          3.14778        1.49694        2.30726
H          1.85526        3.66179       -2.01775
H          6.57100        1.36720       -2.99901
H          7.33339        0.73613        0.73147
H         12.85449       -1.91235        1.79537
H         16.17348       -3.29704       -3.68713
H         17.52189       -4.07133        0.66630
H         19.00191       -4.76950       -1.14218
H         23.95751       -3.42283       -4.71229
H         23.65972       -0.16554       -6.78417
H         26.47617       -5.68221       -6.95821
H         28.59452       -6.93346       -7.29500
H         30.90179       -7.02224       -8.14842
H         31.89127       -5.05330       -9.28389
H         30.58408       -2.98831       -9.56832
H         28.51553       -1.71746       -9.22405
