105

C          2.62127        7.11056        2.44445
C          2.43703        7.61435        3.73786
C          3.37334        7.35377        4.73434
C          4.49015        6.57562        4.44976
C          4.65653        6.00872        3.18045
C          5.68136        5.08019        2.98436
C          5.67453        4.33378        1.82130
C          4.84658        4.69862        0.74590
C          3.87214        5.67870        0.88012
C          3.71882        6.28726        2.14200
C          5.08527        3.77809       -0.39713
O          4.58606        3.83860       -1.49981
C          6.05990        2.74381        0.11102
C          6.17485        2.95834        1.55381
C          5.82926        2.00898        2.46733
C          4.96011        0.94455        2.08101
N          4.15620        0.16247        1.76217
C          6.00458        2.19625        3.86724
N          6.17240        2.35178        5.00928
C          6.70289        1.85580       -0.66741
C          7.76285        0.93969       -0.28734
C          8.98911        1.23597        0.16700
C          9.80887        0.04295        0.18872
C          8.93807       -1.07915       -0.20066
O          9.25180       -2.25028       -0.26539
N          7.70795       -0.43956       -0.50062
C          6.59990       -1.18153       -1.05039
C         11.08166        0.38047        0.45020
N         11.12129        1.77131        0.65355
C          9.84699        2.36963        0.53017
O          9.49326        3.52218        0.67370
C         12.30016        2.56644        0.87948
C         12.27671       -0.49700        0.42206
C         12.80425       -1.20567        1.52034
C         13.99386       -2.05950        1.42058
N         14.46055       -2.70685        2.50520
C         13.79573       -2.53649        3.66890
C         12.67153       -1.74178        3.76254
N         12.16788       -1.07039        2.70017
F         12.03864       -1.61425        4.93722
F         14.26469       -3.16925        4.75346
C         14.69449       -2.25935        0.21745
C         14.18722       -1.56819       -0.91613
C         12.96427       -0.67324       -0.81167
N         12.64427       -0.10363       -1.98723
S         13.74437       -0.63411       -3.10575
N         14.68304       -1.61832       -2.16389
C         15.87555       -3.13257        0.05145
C         17.17506       -2.80789        0.17531
C         17.97828       -3.97084       -0.11514
C         17.07476       -5.08575       -0.41761
O         17.39736       -6.22239       -0.70184
N         15.80031       -4.49290       -0.29584
C         14.59374       -5.23849       -0.54067
C         19.27761       -3.66160       -0.04169
N         19.38505       -2.31885        0.32582
C         18.11414       -1.70957        0.47429
O         17.81500       -0.57427        0.79088
C         20.60603       -1.58959        0.57463
C         20.38120       -4.56296       -0.31775
C         21.27214       -4.48280       -1.32321
C         22.32180       -5.43433       -1.79096
C         22.97613       -6.37936       -1.07514
C         24.04081       -7.16725       -1.60603
N         24.91511       -7.81023       -2.03543
C         22.69653       -6.61575        0.30745
N         22.47332       -6.80183        1.42597
C         22.64283       -5.04343       -3.20081
C         22.04440       -3.80650       -3.46346
C         22.12707       -3.13285       -4.67054
C         22.80488       -3.75127       -5.71590
C         22.86051       -3.14017       -6.97447
C         23.49030       -3.77852       -8.03985
C         24.07921       -5.02568       -7.85193
C         24.04275       -5.64212       -6.59812
C         23.40395       -5.02507       -5.51149
C         23.32649       -5.65625       -4.24511
C         21.21116       -3.37558       -2.34569
O         20.58612       -2.33729       -2.33311
H          1.86362        7.32256        1.69244
H          1.55089        8.19804        3.97517
H          3.22347        7.73136        5.74295
H          5.19725        6.35888        5.24911
H          6.37510        4.85521        3.78956
H          3.18949        5.88540        0.05994
H          6.44954        1.83604       -1.72858
H          6.35966       -2.01028       -0.37787
H          6.90853       -1.60029       -2.01346
H          5.71437       -0.55751       -1.18927
H         13.01796        2.39184        0.07369
H         12.73790        2.30327        1.84500
H         12.04283        3.63091        0.88492
H         14.83158       -6.27610       -0.79585
H         14.05508       -4.78829       -1.37848
H         13.97175       -5.23158        0.35816
H         21.44528       -1.97105       -0.00947
H         20.85400       -1.67258        1.63581
H         20.46122       -0.53350        0.32729
H         20.35090       -5.45019        0.31114
H         21.62778       -2.17537       -4.79349
H         22.39660       -2.16960       -7.14032
H         23.51267       -3.30413       -9.01747
H         24.56478       -5.52464       -8.68703
H         24.50730       -6.61922       -6.48335
H         23.77111       -6.64083       -4.13946
