159

C          0.49558        4.73572       -1.21565
C         -0.61667        4.07998       -0.68064
C         -0.45854        2.87680        0.00051
C          0.80812        2.30590        0.12072
C          1.93072        2.92455       -0.44976
C          3.18137        2.28306       -0.42831
C          4.25166        2.86065       -1.09633
C          4.12406        4.15809       -1.60861
C          2.90952        4.82555       -1.64102
C          1.78080        4.18032       -1.10477
C          5.43606        4.63673       -2.10541
O          5.66962        5.73080       -2.57436
C          6.40645        3.49873       -1.87718
C          5.56199        2.33291       -1.56398
C          5.67848        1.07243       -2.05473
C          6.64367        0.73842       -3.05057
N          7.39172        0.44933       -3.89052
C          4.80223        0.01184       -1.68240
N          4.10825       -0.85168       -1.33599
C          7.73512        3.74353       -1.83344
C          8.88769        2.87103       -1.48254
C          8.74016        1.59853       -0.97124
C          9.82684        0.72297       -0.82478
C         11.15932        1.12450       -0.80672
C         11.31211        2.41632       -1.35476
C         10.21182        3.26684       -1.68991
C         12.34098        0.20071       -0.25399
C         13.79024        0.77302       -0.33186
C         14.93248        0.09342       -0.77745
C         16.18363        0.71369       -0.95187
C         16.32384        2.07443       -0.74675
C         15.23727        2.78460       -0.26224
C         14.01967        2.12714        0.00191
C         12.08901       -1.02080        0.39165
C         10.70025       -1.41489        0.89151
C         10.13270       -2.64519        0.50109
C          8.83454       -2.99621        0.88616
C          8.07248       -2.11676        1.65044
C          8.63365       -0.91980        2.09289
C          9.95629       -0.59390        1.76114
C         13.11116       -2.11907        0.68459
C         13.18226       -2.70331        1.95626
C         13.98325       -3.83943        2.21814
C         14.77425       -4.45798        1.23329
C         14.62658       -3.91142       -0.05666
C         13.77345       -2.81615       -0.33069
C         15.69669       -5.61664        1.53233
C         15.47065       -6.63062        2.50294
C         16.40086       -7.72052        2.78463
N         16.08086       -8.62534        3.73776
C         14.92988       -8.49475        4.44144
C         14.05880       -7.47796        4.17328
N         14.31784       -6.56761        3.20278
C         12.84008       -7.28103        4.90548
N         11.87601       -7.12652        5.51948
C         14.71277       -9.45517        5.48197
N         14.52034      -10.21551        6.33788
C         17.63986       -7.88631        2.11750
C         17.91500       -6.86235        1.14909
C         16.94440       -5.74223        0.85068
N         17.41441       -4.90962       -0.09749
S         18.88480       -5.45331       -0.58591
N         19.03666       -6.74154        0.41462
C         18.64356       -8.98665        2.36969
C         19.57535       -9.35996        1.39785
C         20.65437      -10.22601        1.65079
C         20.76228      -11.00408        2.79108
C         19.78132      -10.69016        3.75887
C         18.79249       -9.68336        3.57633
C         21.84141      -12.09419        3.06479
C         21.89114      -12.50847        4.50692
C         22.59496      -11.68637        5.40526
C         22.64418      -12.00074        6.76274
C         22.00179      -13.14446        7.23456
C         21.28014      -13.95741        6.35675
C         21.19817      -13.62917        4.99828
C         22.77543      -12.65324        2.18779
C         22.91148      -12.06333        0.78904
C         24.10448      -11.37654        0.46738
C         24.29914      -10.79507       -0.78771
C         23.26791      -10.80951       -1.71908
C         22.08631      -11.49485       -1.43162
C         21.93447      -12.18035       -0.21339
C         23.82958      -13.77353        2.52343
C         24.04382      -14.41357        3.74932
C         25.02938      -15.39638        3.96192
C         25.91970      -15.76122        2.95554
C         25.78035      -15.10242        1.75311
C         24.72171      -14.20553        1.51540
C         26.97212      -16.73894        3.29658
C         27.60535      -17.65963        2.54459
C         28.65438      -18.66018        2.92333
C         29.23546      -18.85900        4.13559
C         30.26355      -19.82040        4.36084
N         31.10159      -20.59800        4.56170
C         28.89878      -18.12149        5.30723
N         28.63998      -17.53298        6.27392
C         29.00025      -19.40957        1.66768
C         28.29081      -18.84632        0.60732
C         28.42141      -19.22123       -0.72085
C         29.27138      -20.27908       -1.01801
C         29.43954      -20.69885       -2.34310
C         30.23999      -21.79992       -2.63496
C         30.87426      -22.48987       -1.60545
C         30.73377      -22.06607       -0.28125
C         29.94529      -20.95085        0.03649
C         29.81042      -20.50019        1.37285
C         27.33336      -17.86000        1.08064
O         26.46604      -17.40910        0.36352
H          0.34287        5.67414       -1.74493
H         -1.60952        4.50796       -0.79830
H         -1.32348        2.37104        0.42341
H          0.90351        1.35341        0.63964
H          3.27230        1.31720        0.06015
H          2.83651        5.80274       -2.11067
H          8.04573        4.76458       -2.07419
H          7.78247        1.19735       -0.68018
H          9.53725       -0.30952       -0.70676
H         12.29389        2.82003       -1.58353
H         10.43225        4.24738       -2.11079
H         14.92300       -0.94717       -1.03603
H         17.03521        0.12113       -1.27963
H         17.26916        2.56824       -0.95483
H         15.32682        3.85568       -0.09720
H         13.22264        2.73113        0.43088
H         10.69387       -3.33882       -0.12146
H          8.41541       -3.95024        0.57463
H          7.04570       -2.36949        1.90550
H          8.03420       -0.22606        2.67715
H         10.36624        0.35506        2.10023
H         12.55761       -2.32518        2.76453
H         13.94914       -4.22657        3.23299
H         15.16784       -4.32779       -0.90470
H         13.64486       -2.51601       -1.37006
H         19.54189       -8.95751        0.38969
H         21.41358      -10.20353        0.88964
H         19.76620      -11.19278        4.72519
H         18.15927       -9.47491        4.43492
H         23.09813      -10.79257        5.04242
H         23.18665      -11.35443        7.44773
H         22.06416      -13.40125        8.28943
H         20.79513      -14.85598        6.73035
H         20.64469      -14.27405        4.32005
H         24.91736      -11.33199        1.19093
H         25.24817      -10.32097       -1.02573
H         23.38538      -10.28558       -2.66486
H         21.26571      -11.46512       -2.14486
H         20.99849      -12.69509       -0.00942
H         23.48218      -14.19894        4.63785
H         25.08533      -15.85113        4.95001
H         26.48835      -15.24954        0.93365
H         24.64838      -13.84746        0.49335
H         27.20810      -16.65962        4.35299
H         27.84921      -18.70664       -1.48829
H         28.94181      -20.17561       -3.15742
H         30.35925      -22.12385       -3.66554
H         31.48282      -23.36113       -1.83349
H         31.24291      -22.62340        0.50252
H         30.34466      -21.04788        2.14055
