137

C        -13.66992      -13.35597       -6.81252
C        -12.74401      -14.38780       -6.45489
C        -11.81381      -14.21819       -5.37285
C        -11.78318      -12.87075       -4.97999
C        -12.78045      -12.00249       -5.14539
C        -13.74946      -12.19344       -6.02335
C        -14.60828      -10.95050       -5.97446
C        -15.58075      -10.60341       -6.81636
C        -15.86232      -11.42600       -7.95046
N        -16.05405      -12.12383       -8.84851
C        -16.29022       -9.34972       -6.69811
N        -16.87612       -8.35130       -6.63534
C        -14.09979      -10.10219       -4.86998
C        -14.46128       -8.92616       -4.30861
C        -12.95505      -10.75349       -4.46774
O        -12.26065      -10.28259       -3.63651
C        -10.94517      -15.45260       -4.80763
F        -10.35444      -16.68126       -4.54983
F        -12.13142      -16.14367       -4.58775
F        -10.29611      -15.50784       -6.02782
C        -10.17095      -14.79594       -3.51443
C         -9.31173      -15.42281       -2.64910
C         -8.49629      -14.53765       -1.84172
C         -7.50417      -14.89150       -0.94571
C         -7.26227      -16.30025       -0.54318
C         -6.05935      -16.86479       -0.15456
C         -6.11311      -18.14605        0.28124
C         -7.37939      -18.65343        0.26241
S         -8.42503      -17.50172       -0.34826
C         -7.75688      -19.98665        0.75647
Cl        -4.68012      -18.96199        0.87783
C         -6.77101      -13.82236       -0.40581
C         -7.01214      -12.43886       -0.70727
C         -8.05530      -11.99147       -1.66520
C         -8.74261      -13.17917       -2.08104
S         -9.97966      -13.24799       -2.97344
C         -8.42930      -10.50569       -2.33125
C         -9.41603       -9.97356       -3.26686
C         -9.48129       -8.57196       -3.49385
C         -8.49661       -7.91255       -2.86971
S         -7.67787       -9.09141       -1.92848
C         -8.24318       -6.48029       -3.17729
Cl       -10.73202       -7.75880       -4.48346
C         -6.12674      -11.67562        0.07297
C         -5.20190      -12.34869        0.88378
S         -5.46564      -13.97732        0.65468
C         -4.13075      -11.72895        1.75348
C         -2.93779      -12.41404        2.00331
C         -1.86843      -11.81279        2.72745
N         -1.06746      -12.68343        3.44160
C         -1.26177      -14.05040        3.44095
C         -2.29082      -14.59251        2.68630
N         -3.05609      -13.76172        1.96455
F         -2.63663      -15.91005        2.75035
F         -0.52511      -14.88047        4.22234
C         -1.95205      -10.40581        3.09366
C         -3.24668      -10.25740        3.57397
C         -4.35330      -10.78627        2.80469
N         -5.57716      -10.46124        3.28643
S         -5.20565       -9.62741        4.67318
N         -3.55858       -9.54254        4.67562
C         -1.93225       -9.29992        1.96376
C         -2.53741       -7.98903        1.93469
C         -2.52878       -7.26830        0.65371
C         -3.03061       -5.95618        0.27846
C         -3.69558       -5.07115        1.24206
C         -3.67718       -3.68306        1.19368
C         -4.44900       -3.08191        2.17493
C         -5.08703       -3.98913        3.00461
S         -4.67274       -5.54829        2.53015
C         -5.98714       -3.63007        4.13569
Cl        -4.57730       -1.34138        2.32294
C         -2.97573       -5.52373       -1.10737
C         -2.53770       -6.33376       -2.12637
C         -1.98390       -7.60019       -1.72065
C         -1.95870       -8.02673       -0.33794
S         -1.36191       -9.47236        0.40089
C         -1.52357       -8.48315       -2.73607
C         -1.55776       -9.79227       -2.57636
C         -0.99834      -10.52333       -3.51101
C         -0.66746       -9.82382       -4.64907
S         -0.92367       -8.18837       -4.27973
C         -0.40106      -10.42479       -6.03239
Cl        -0.94829      -12.17870       -3.14102
C         -2.85695       -5.76820       -3.48025
C         -3.51601       -4.53213       -3.51500
S         -3.57025       -4.11448       -1.85885
C         -4.44510       -3.81719       -4.64561
C         -5.66084       -3.11571       -5.48677
C         -6.31033       -3.54405       -6.72077
C         -7.63261       -3.04828       -7.04421
C         -8.30566       -2.17096       -6.20097
C         -7.62519       -1.61935       -5.12656
C         -6.33792       -2.04675       -4.80232
C         -9.74465       -1.96302       -6.61176
C        -10.72391       -1.27894       -5.91884
C        -10.53519       -0.68025       -4.61260
N        -10.43867       -0.18186       -3.56879
C        -12.05093       -1.01701       -6.42922
N        -13.12820       -0.77339       -6.78064
C         -9.88160       -2.69928       -7.90962
C        -10.97393       -2.81781       -8.70211
C         -8.56962       -3.36764       -8.15280
O         -8.32602       -4.10245       -9.09850
F         -4.33381       -4.87378       -5.53871
F         -5.39081       -3.93048       -3.65555
F         -3.57741       -2.73915       -4.80801
H        -14.31912      -13.48998       -7.64135
H        -12.75200      -15.30613       -7.02512
H        -11.05165      -12.32566       -4.57311
H        -15.29882       -8.35157       -4.61959
H        -13.88720       -8.47911       -3.48762
H         -9.28844      -16.43700       -2.72466
H         -5.12600      -16.45127       -0.07360
H         -6.85835      -20.53221        1.11031
H         -8.22358      -20.55465       -0.06806
H         -8.44763      -19.84955        1.61211
H        -10.15644      -10.41428       -3.81276
H         -9.13694       -5.82849       -2.99434
H         -8.05070       -6.49528       -4.28111
H         -7.35236       -6.15825       -2.63722
H         -6.16700      -10.64775        0.07253
H         -2.99605       -7.61694        2.81589
H         -3.12492       -3.10047        0.48194
H         -5.42208       -3.00579        4.85688
H         -6.35795       -4.54107        4.64726
H         -6.85413       -3.04922        3.75409
H         -2.01762      -10.29354       -1.88382
H         -1.14241      -11.10013       -6.49074
H          0.35689      -11.22990       -6.04012
H         -0.57323       -9.64428       -6.80966
H         -2.82869       -6.15071       -4.45530
H         -5.87554       -4.30535       -7.35712
H         -8.08330       -0.90556       -4.47489
H         -5.92633       -1.63909       -3.88986
H        -11.92298       -2.34788       -8.48691
H        -10.96532       -3.41749       -9.60751
