62

C          7.81122        2.65361        1.86258
N          7.04095        1.81322        0.97744
N          6.41855        2.33808       -0.07968
C          5.82214        1.26453       -0.63787
C          4.99892        1.19301       -1.78448
C          4.61946        2.36530       -2.57256
C          4.47770        3.65290       -2.04956
N          4.10280        4.73155       -2.78845
C          3.87638        4.48029       -4.09207
C          4.00297        3.21245       -4.62980
N          4.36355        2.13557       -3.89095
C          4.58113       -0.12797       -2.07500
C          4.90850       -1.26505       -1.28266
C          5.69843       -1.22822       -0.09799
C          5.89701       -2.48760        0.71759
C          7.09927       -3.22894        0.20469
N          7.02453       -4.00218       -0.88753
S          8.51381       -4.76790       -0.97393
N          9.22768       -4.21193        0.43541
C          8.36022       -3.31597        0.92737
C          8.65824       -2.54885        2.19032
C          9.47816       -1.30288        1.86129
C          9.99905       -0.47535        2.90127
C         10.79566        0.69648        2.70291
C         11.20390        1.18907        1.43802
C         11.97326        2.42547        1.22500
C         12.54466        2.82202        0.00984
N         13.20489        3.99801       -0.18027
C         13.29040        4.78385        0.90413
C         12.75879        4.41362        2.12303
N         12.09136        3.24321        2.30966
C         10.71244        0.38861        0.38122
N         10.87367        0.55284       -0.94490
N         10.14984       -0.43587       -1.46145
C          9.95373       -0.51653       -2.88706
N          9.54895       -1.28385       -0.63379
C          9.86616       -0.81269        0.58558
C          7.36259       -2.12550        2.84683
N          7.29407       -1.85906        4.15916
S          5.67522       -1.54636        4.45726
N          5.02169       -1.84436        2.94625
C          6.07627       -2.11782        2.16713
C          6.16415        0.08293        0.18031
N          6.93926        0.50234        1.19402
H          7.22989        3.55052        2.08728
H          8.73914        2.91841        1.35420
H          8.01946        2.10935        2.78720
H          4.64240        3.86950       -0.99882
H          3.58670        5.33025       -4.69815
H          3.81681        3.02513       -5.68104
H          3.95179       -0.28922       -2.95432
H          4.50362       -2.22794       -1.60881
H          5.01001       -3.13102        0.63207
H          9.23103       -3.18678        2.87620
H          9.76114       -0.73106        3.93810
H         11.09408        1.25261        3.59573
H         12.49813        2.21336       -0.88527
H         13.80778        5.73064        0.76657
H         12.84549        5.05224        2.99085
H          9.58486        0.45312       -3.23114
H          9.22080       -1.29515       -3.11112
H         10.91313       -0.74989       -3.35452
