75

C         -4.72242        2.16466       -5.15661
C         -4.10501        3.02513       -4.05181
C         -4.92995        4.29010       -3.80802
C         -2.63035        3.36527       -4.35492
C         -1.89279        4.05254       -5.35298
C         -0.51860        4.00645       -5.09722
C          0.59328        4.56684       -5.87640
C          1.87620        4.01411       -5.89273
N          2.90549        4.53712       -6.60222
C          2.60825        5.65363       -7.30023
C          1.33977        6.20644       -7.30092
N          0.30373        5.67722       -6.60209
S         -0.18287        3.16606       -3.60964
C         -1.79343        2.84566       -3.38927
C         -2.55417        2.14494       -2.42755
S         -2.20435        1.23179       -1.09189
C         -3.90258        0.93495       -0.79193
C         -4.29833        0.11209        0.38417
C         -5.33881       -0.84791        0.23656
N         -6.06022       -1.08870       -0.87441
S         -7.14814       -2.27605       -0.52010
N         -6.75549       -2.56585        1.05559
C         -5.74331       -1.74320        1.38704
C         -5.08594       -1.66120        2.64791
C         -5.52170       -2.57319        3.74910
C         -5.99958       -3.89286        3.69861
C         -6.29014       -4.40791        4.99063
C         -6.00420       -3.48004        5.96706
S         -5.53226       -1.99801        5.40115
C         -6.22865       -4.04488        7.24201
S         -6.03798       -3.53971        8.80956
C         -6.60498       -5.07230        9.40965
C         -6.68892       -5.30928       10.85686
C         -6.90804       -4.30545       11.79934
N         -6.98865       -4.54034       13.13503
C         -6.83555       -5.83109       13.49925
C         -6.62145       -6.83770       12.57298
N         -6.55196       -6.60631       11.23942
C         -6.90370       -5.94581        8.35987
C         -6.68582       -5.33913        7.09838
C         -6.81225       -5.72436        5.61034
C         -5.93298       -6.92244        5.25533
C         -8.27438       -5.98031        5.23100
C         -4.05437       -0.69103        2.75685
N         -3.38294       -0.58935        3.92591
C         -2.44121        0.36490        4.06995
F         -1.82449        0.47114        5.25412
C         -2.13093        1.22135        3.04730
F         -1.18657        2.15680        3.20651
N         -2.75439        1.14318        1.85615
C         -3.69605        0.19385        1.66225
C         -4.68135        1.50750       -1.80755
C         -3.89088        2.21661       -2.75180
H         -4.77600        2.71464       -6.10313
H         -5.73850        1.85080       -4.89134
H         -4.13590        1.25612       -5.33907
H         -4.99062        4.90233       -4.71503
H         -4.49071        4.91501       -3.02109
H         -5.95194        4.04283       -3.49906
H         -2.31492        4.54120       -6.22382
H          2.12200        3.11547       -5.33847
H          3.42208        6.09279       -7.86493
H          1.11868        7.10745       -7.86531
H         -6.12168       -4.45442        2.78068
H         -7.04011       -3.26651       11.51682
H         -6.89214       -6.03662       14.56159
H         -6.49384       -7.86952       12.88280
H         -7.26230       -6.95636        8.52010
H         -4.88489       -6.75066        5.52570
H         -5.96576       -7.13086        4.17990
H         -6.26389       -7.82501        5.78313
H         -8.91592       -5.12830        5.48763
H         -8.67150       -6.85626        5.75709
H         -8.37934       -6.15669        4.15452
H         -5.75908        1.41190       -1.86319
