59

C         -7.89886       -2.43530        2.46466
C         -7.07476       -1.33726        2.52438
C         -5.76832       -1.62659        2.02846
C         -5.62268       -2.93741        1.59912
S         -7.09829       -3.79852        1.82220
C         -4.43682       -3.53236        1.00578
C         -3.26198       -2.88159        0.68006
C         -2.32835       -3.71123       -0.01555
Cl        -0.88483       -3.02093       -0.63493
C         -2.76775       -5.01650       -0.15111
S         -4.31588       -5.19123        0.59261
C         -2.13949       -6.15564       -0.79874
C         -0.84182       -6.61590       -0.72680
Cl         0.44654       -5.98288        0.21309
C         -0.63518       -7.79835       -1.50594
C         -1.77895       -8.31145       -2.10800
S         -3.05096       -7.17689       -1.83790
C         -1.98857       -9.60222       -2.86692
C         -3.23010      -10.08522       -3.38750
C         -3.36552      -11.36983       -4.05781
N         -4.56960      -11.76578       -4.53522
C         -5.63312      -10.96410       -4.36096
C         -5.52186       -9.75931       -3.72291
N         -4.33757       -9.32532       -3.24580
F         -6.59699       -8.97902       -3.54915
F         -6.82163      -11.38369       -4.82173
C         -2.28626      -12.25850       -4.23748
C         -1.03276      -11.82975       -3.72492
C         -0.87618      -10.48425       -3.05305
N          0.39841      -10.27097       -2.68031
S          1.29421      -11.59115       -3.07520
N          0.11726      -12.52832       -3.73278
C         -2.42097      -13.59531       -4.87645
C         -3.47206      -14.49210       -4.80729
C         -3.27127      -15.67627       -5.58156
Cl        -4.52053      -16.85419       -5.65466
C         -2.03033      -15.71326       -6.19942
S         -1.21115      -14.22527       -5.91893
C         -1.40097      -16.78014       -6.96973
C         -0.52778      -16.71810       -8.04589
Cl         0.05354      -15.31911       -8.85698
C         -0.11340      -18.00744       -8.50407
C         -0.68070      -19.04987       -7.79805
S         -1.64823      -18.43009       -6.52905
C         -0.49845      -20.46957       -8.04811
C          0.35201      -21.04681       -8.97952
C          0.29630      -22.47265       -8.98658
C         -0.60110      -22.95379       -8.06375
S         -1.36524      -21.69472       -7.20182
H         -8.93523       -2.50402        2.76650
H         -7.39199       -0.37193        2.90006
H         -4.97810       -0.88750        1.98576
H         -3.08973       -1.83007        0.87425
H          0.33787       -8.26792       -1.54541
H         -4.37314      -14.30760       -4.23388
H          0.56288      -18.15034       -9.33786
H          0.99880      -20.47975       -9.63727
H          0.88435      -23.10975       -9.63627
H         -0.84725      -23.98569       -7.85316
