69

C         -6.21296       -1.46814        5.19966
C         -6.95422       -2.60592        5.41720
C         -6.48079       -3.70667        4.64099
C         -5.38509       -3.38519        3.85662
S         -4.95715       -1.73220        4.07056
C         -4.64780       -4.25181        2.95758
C         -3.29483       -4.17996        2.60959
C         -2.93803       -5.20632        1.70560
C         -4.01832       -6.00242        1.40250
S         -5.43708       -5.57855        2.15097
C         -3.61465       -6.99638        0.48949
C         -2.27893       -6.83159        0.20605
C         -1.76492       -5.69285        0.97349
C         -0.50668       -5.21250        1.00548
C         -0.15287       -4.09618        1.81066
N          0.13519       -3.18443        2.46917
C          0.53413       -5.80307        0.23823
N          1.37705       -6.29117       -0.39266
C         -1.83305       -7.78793       -0.73509
C         -2.87320       -8.63518       -1.13606
S         -4.34681       -8.26218       -0.28806
C         -2.82290       -9.71088       -2.10890
C         -3.81825      -10.19429       -2.93740
C         -3.37114      -11.28911       -3.78081
N         -4.17704      -11.92462       -4.68287
C         -5.43675      -11.39664       -4.69149
C         -6.38358      -11.95792       -5.69958
O         -6.17451      -12.96600       -6.35439
C         -7.61334      -11.13624       -5.92699
C         -8.19025      -10.81872       -4.75493
C         -7.30767       -9.93422       -3.93040
O         -7.78049       -8.99851       -3.30461
C         -5.87286      -10.34685       -3.87186
N         -5.08859       -9.69169       -2.97119
C         -2.04654      -11.61960       -3.57443
S         -1.36770      -10.59003       -2.36707
C         -1.24924      -12.64070       -4.22931
C         -1.38171      -13.12888       -5.53316
C         -0.41755      -14.12451       -5.81164
C          0.40448      -14.34298       -4.73099
S          0.05290      -13.44050       -3.38806
C          1.36455      -15.31512       -5.07242
C          1.14945      -15.71947       -6.36897
C         -0.00629      -15.00194       -6.91056
C         -0.57351      -15.13456       -8.12512
C         -1.71436      -14.37182       -8.50070
N         -2.63876      -13.74391       -8.80430
C         -0.07463      -16.05167       -9.08855
N          0.33201      -16.80293       -9.87636
C          2.10174      -16.67951       -6.77287
C          3.00683      -16.96669       -5.74554
S          2.64666      -16.03953       -4.31388
C          4.12532      -17.88916       -5.76981
C          5.01925      -18.17247       -4.74946
C          6.00162      -19.13722       -5.11826
C          5.83526      -19.56779       -6.41264
S          4.50783      -18.81102       -7.17213
H         -6.34570       -0.49257        5.64864
H         -7.79534       -2.64845        6.09889
H         -6.92852       -4.69316        4.67306
H         -2.63198       -3.42139        3.00861
H         -0.82959       -7.86198       -1.13658
H         -7.34887      -10.33369       -6.62058
H         -8.56374      -11.61761       -4.10997
H         -2.13355      -12.76227       -6.22275
H          2.15581      -17.14901       -7.74762
H          4.98091      -17.71250       -3.76922
H          6.78756      -19.49445       -4.46432
H          6.43004      -20.29169       -6.95218
