78

C         -6.19111        0.66261        2.02402
N         -6.42435       -0.66568        1.92091
N         -5.45763       -1.59827        1.41910
C         -4.20935       -1.24790        1.00862
C         -3.89164        0.12830        1.09099
C         -4.92000        1.10294        1.61470
N         -4.48695        2.37490        1.62814
S         -2.94020        2.35665        1.03052
N         -2.74597        0.73830        0.72757
C         -3.33151       -2.24814        0.41796
C         -1.93519       -2.35133        0.42320
C         -1.49471       -3.39486       -0.42349
C         -2.56035       -4.05027       -0.99245
S         -4.05824       -3.50951       -0.53714
C         -2.07496       -4.96486       -1.94137
C         -0.70429       -4.88208       -2.00859
C         -0.25070       -3.95330       -0.96718
C          1.01039       -3.72193       -0.55103
C          2.11759       -4.38913       -1.14167
N          3.01325       -4.94101       -1.62593
C          1.28178       -2.85151        0.53811
N          1.49566       -2.14904        1.43963
C         -0.19149       -5.64518       -3.09606
C         -1.22881       -6.24196       -3.81491
S         -2.76395       -6.03337       -2.98816
C         -1.23062       -7.02239       -5.03532
C         -2.26031       -7.08997       -5.95968
C         -3.33886       -6.11809       -6.10313
O         -3.14446       -4.91995       -6.23118
C         -4.64895       -6.76554       -6.04971
C         -4.78395       -8.20465       -6.25468
C         -6.02729       -8.65376       -5.83797
S         -7.09265       -7.33442       -5.56536
C         -5.85377       -6.15414       -5.73617
C         -6.22505       -4.72020       -5.46593
F         -5.20000       -3.84478       -5.53803
F         -7.16670       -4.28440       -6.34324
F         -6.75432       -4.57848       -4.22176
C         -6.53710      -10.03640       -5.54078
F         -5.61844      -11.01457       -5.70139
F         -6.93172      -10.12207       -4.23949
F         -7.61243      -10.36070       -6.29818
C         -3.66129       -9.05643       -6.70418
O         -3.82992      -10.17402       -7.16249
C         -2.35598       -8.44194       -6.43280
C         -1.07947       -8.97339       -6.57581
S         -0.00851       -8.13380       -5.49144
C         -0.62906      -10.08894       -7.38583
C          0.42608      -10.97912       -7.16011
C          0.45758      -11.99515       -8.14767
C         -0.53891      -11.82106       -9.07991
S         -1.39558      -10.41464       -8.92176
C         -0.57185      -12.93776       -9.93850
C          0.42160      -13.81362       -9.56686
C          1.17945      -13.23367       -8.45443
C          2.30865      -13.70182       -7.88678
C          2.92056      -14.90889       -8.32377
N          3.42180      -15.88954       -8.68736
C          2.96775      -12.98435       -6.85259
N          3.50502      -12.39055       -6.01213
C          0.37399      -15.00138      -10.33030
C         -0.67904      -14.97406      -11.25070
S         -1.54613      -13.46376      -11.17328
C         -1.13383      -15.99416      -12.18732
N         -1.72051      -15.62127      -13.35663
N         -2.21547      -16.54613      -14.33540
C         -2.15054      -17.88867      -14.18827
C         -1.55923      -18.35411      -13.00073
C         -1.03190      -17.38859      -11.96398
N         -0.51494      -18.02275      -10.89282
S         -0.66547      -19.65039      -11.16988
N         -1.39987      -19.64325      -12.65647
H         -6.97816        1.29835        2.40035
H         -1.30090       -1.65456        0.96040
H          0.84617       -5.70576       -3.40149
H          1.07251      -10.91681       -6.29277
H          1.03131      -15.85645      -10.22171
H         -2.54953      -18.51514      -14.97158
