67

C         -0.87635       -1.11347       -3.55329
N         -0.13302       -1.68072       -2.60607
C          0.68803       -2.63030       -3.06245
N          0.80508       -3.01515       -4.33339
C          0.01512       -2.36444       -5.17519
N         -0.84870       -1.40599       -4.85197
C          1.50622       -3.33575       -2.07026
C          1.54843       -3.16155       -0.68421
C          2.48253       -4.03336       -0.08689
C          3.09106       -4.84198       -1.02011
S          2.60435       -4.59151       -2.58391
C          4.01739       -5.68030       -0.36643
C          4.01359       -5.38492        0.97631
C          3.01617       -4.34588        1.23895
C          2.64851       -3.82392        2.42497
C          3.24089       -4.24780        3.64562
N          3.72177       -4.58737        4.64585
C          1.63310       -2.83319        2.52309
N          0.80338       -2.02578        2.60426
C          4.96456       -6.15746        1.67643
C          5.63439       -7.05324        0.83158
S          5.03676       -6.91160       -0.80490
C          6.66875       -8.06488        1.16752
C          7.78737       -8.38725        0.36442
C          8.72962       -9.42370        0.72349
N          9.72662       -9.72961       -0.13669
C          9.85839       -9.02722       -1.27651
C          8.99691       -8.01624       -1.59096
N          7.97316       -7.69174       -0.78049
C          8.65116      -10.14059        1.94335
C          7.55458       -9.81762        2.79404
C          6.54082       -8.77995        2.39223
N          5.55590       -8.64981        3.30081
S          5.88755       -9.67017        4.55306
N          7.28620      -10.34827        4.00180
C          9.60679      -11.19300        2.38583
C          9.36452      -12.36186        3.12305
C         10.54579      -13.10306        3.34414
C         11.63400      -12.49914        2.75902
S         11.31593      -11.03873        2.04427
C         12.77117      -13.30893        2.96244
C         12.40299      -14.41622        3.69311
C         10.97675      -14.33791        4.00304
C         10.24911      -15.18420        4.75780
C         10.82823      -16.32666        5.37319
N         11.30218      -17.26081        5.88045
C          8.86621      -14.96550        5.00136
N          7.73678      -14.79409        5.20361
C         13.49342      -15.27945        3.91746
C         14.66120      -14.77817        3.33958
S         14.37401      -13.25975        2.53421
C         16.00023      -15.36983        3.33830
N         16.78417      -15.09148        2.29729
C         17.95021      -15.72350        2.31366
N         18.36454      -16.57649        3.24708
C         17.48976      -16.77314        4.23204
N         16.29074      -16.20572        4.33930
H         -1.57461       -0.34321       -3.24061
H          0.08196       -2.64197       -6.22050
H          0.92950       -2.42698       -0.18200
H          5.16640       -6.09905        2.73922
H         10.68506       -9.30452       -1.91953
H          9.09180       -7.43907       -2.50285
H          8.37590      -12.63971        3.46796
H         13.47978      -16.22246        4.45087
H         18.62160      -15.52669        1.48565
H         17.78177      -17.46984        5.01146
