81

C         -8.99876       -3.94964       -0.80652
C         -8.68003       -4.57724        0.35294
C         -8.20409       -5.91728        0.39720
N         -7.80920       -7.00749        0.43778
C         -8.83684       -3.96773        1.64078
N         -8.95315       -3.47958        2.68525
C         -9.00402       -4.55146       -2.17998
C         -9.71564       -3.70006       -3.02948
C         -9.92033       -3.93111       -4.38494
C         -9.37509       -5.10680       -4.93868
C         -8.65590       -5.97227       -4.10347
C         -8.44979       -5.70804       -2.72123
S         -8.08538       -7.34490       -4.98408
C         -8.77608       -6.79708       -6.44306
C         -9.42133       -5.59417       -6.28703
C        -10.16947       -2.50158       -2.31788
O        -10.88200       -1.64325       -2.79509
C         -9.55535       -2.58180       -0.94973
C         -9.38438       -1.50649       -0.16408
C         -9.88674       -0.17065       -0.40116
C         -9.31596        0.90987        0.15006
C         -9.82864        2.24553       -0.03624
C         -9.31412        3.29911        0.61342
C         -9.84907        4.64898        0.43478
C         -9.36565        5.54568       -0.53320
C         -9.91734        6.87001       -0.67863
N         -9.41663        7.69474       -1.63135
C         -8.40876        7.24454       -2.42620
C         -7.88288        5.98367       -2.27654
N         -8.35622        5.13588       -1.32567
C         -6.81227        5.48623       -3.08324
N         -5.94314        5.10872       -3.74748
C         -7.93409        8.16403       -3.41764
N         -7.53172        8.90098       -4.22198
C        -10.97388        7.32843        0.13761
C        -11.46679        6.44343        1.14728
C        -10.89590        5.07362        1.29240
N        -11.47502        4.36467        2.27765
S        -12.64145        5.32274        2.95045
N        -12.42739        6.69076        2.05691
C        -11.55688        8.67844        0.00990
C        -12.85902        8.91894        0.21706
C        -13.47495       10.21189        0.15001
C        -14.79391       10.31876       -0.06521
C        -15.45567       11.58490       -0.19934
C        -15.18479       12.51920       -1.11877
C        -14.25053       12.60799       -2.25348
C        -13.94448       11.63313       -3.14423
C        -13.08173       11.84622       -4.25922
N        -12.37874       12.01529       -5.16639
C        -14.53849       10.33380       -3.11114
N        -15.02358        9.27816       -3.13519
C        -13.90604       14.05628       -2.38312
C        -14.79039       14.78993       -1.58358
C        -15.67671       13.89732       -0.82503
O        -16.56027       14.23338       -0.06504
C        -14.78086       16.17326       -1.47567
C        -13.82360       16.87890       -2.23444
C        -12.92112       16.15524       -3.02642
C        -12.93381       14.73886       -3.10353
S        -11.83920       17.21209       -3.85867
C        -12.56267       18.60323       -3.19296
C        -13.59281       18.29068       -2.33902
H        -10.47085       -3.21836       -4.99297
H         -7.85966       -6.41269       -2.14668
H         -8.67531       -7.37838       -7.34972
H         -9.91572       -5.07803       -7.10180
H         -8.79352       -1.58103        0.74454
H        -10.77285       -0.05792       -1.02293
H         -8.42125        0.80526        0.76107
H        -10.66946        2.36881       -0.71671
H         -8.48725        3.20233        1.31069
H        -10.88463        9.47271       -0.30750
H        -13.54435        8.10651        0.45281
H        -12.84561       11.08769        0.29036
H        -15.42292        9.43486       -0.16980
H        -16.18513       11.78843        0.58628
H        -15.48402       16.68414       -0.82400
H        -12.18891       14.24482       -3.71681
H        -12.19702       19.58660       -3.45489
H        -14.17088       19.04033       -1.81187
