89

C         -9.24549       -0.65130       -0.40326
C         -9.24935       -1.73933        0.40088
C        -10.33887       -2.65546        0.43617
N        -11.23125       -3.40404        0.45030
C         -8.11714       -2.08193        1.20422
N         -7.20754       -2.34984        1.86367
C        -10.30633       -0.24935       -1.37526
C         -9.70637        0.55600       -2.34679
C        -10.39467        1.24393       -3.33290
C        -11.79901        1.11387       -3.34769
C        -12.41292        0.27154       -2.40696
C        -11.68355       -0.42787       -1.40837
S        -14.12600        0.24772       -2.62678
C        -14.05787        1.37502       -3.90345
C        -12.76998        1.75945       -4.18331
C         -8.27012        0.67207       -2.08499
O         -7.41281        0.90424       -2.90928
C         -8.12227        0.28167       -0.64744
C         -7.35106        0.92353        0.25217
C         -6.55564        2.09742       -0.02140
C         -5.38054        2.52453        0.57712
C         -4.86771        3.74307        0.01065
O         -3.72862        4.35944        0.41996
C         -3.56359        4.25374        1.84201
C         -3.19580        2.83128        2.23641
S         -4.56728        1.67990        1.90585
C         -5.62711        4.22082       -1.05032
S         -7.13579        3.38311       -1.02207
C         -5.42346        5.32623       -2.03568
C         -5.76205        5.24953       -3.41345
C         -5.50718        6.32395       -4.35861
N         -5.83558        6.15047       -5.65534
C         -6.48512        5.03287       -6.03003
C         -6.73709        4.02672       -5.14402
N         -6.35242        4.11983       -3.85807
C         -4.92959        7.55823       -3.98610
C         -4.61738        7.69257       -2.59445
C         -4.86573        6.56272       -1.61203
N         -4.52677        6.90560       -0.35589
S         -3.87994        8.41674       -0.39511
N         -4.09485        8.77778       -1.98779
C         -4.62405        8.69115       -4.92541
C         -5.31346        9.27930       -5.98773
C         -4.59505       10.37179       -6.59019
O         -4.97250       11.12866       -7.65763
C         -5.87445       10.46084       -8.54032
C         -7.17744       10.09747       -7.84954
S         -6.92094        8.82893       -6.57970
C         -3.42396       10.68941       -5.92978
S         -3.07147        9.46119       -4.78625
C         -2.48250       11.72213       -6.23774
C         -1.75501       12.42437       -5.35628
C         -1.68189       12.48429       -3.89304
C         -2.71884       12.68443       -3.04522
C         -2.54470       12.84813       -1.63713
N         -2.39571       12.97321       -0.49478
C         -4.04084       12.92515       -3.52729
N         -5.10341       13.20229       -3.90452
C         -0.24804       12.69193       -3.55578
C          0.39724       13.15635       -4.70771
C         -0.51616       13.09888       -5.86785
O         -0.26809       13.45427       -7.00044
C          1.73076       13.54269       -4.73874
C          2.47006       13.44307       -3.53582
C          1.84046       12.92263       -2.39535
C          0.47967       12.52728       -2.38514
S          2.93134       12.84746       -1.05947
C          4.20183       13.53969       -1.95814
C          3.83362       13.79758       -3.25726
H         -9.87011        1.90668       -4.01502
H        -12.22090       -1.02464       -0.67985
H        -14.96659        1.70710       -4.38719
H        -12.52354        2.48179       -4.95308
H         -7.36990        0.61544        1.29160
H         -4.45568        4.61920        2.37272
H         -2.74530        4.92707        2.11985
H         -2.95206        2.78049        3.30260
H         -2.32450        2.49505        1.66604
H         -6.80502        4.98798       -7.06433
H         -7.25308        3.11723       -5.42757
H         -5.38298        9.60242       -9.01813
H         -6.09680       11.17240       -9.34536
H         -7.90033        9.72168       -8.58073
H         -7.60494       10.97438       -7.35561
H         -2.30222       11.87999       -7.30185
H          2.18504       13.90286       -5.65674
H          0.05098       12.11833       -1.47663
H          5.16151       13.72119       -1.49337
H          4.50982       14.23225       -3.98411
