111

C         -6.42431       -0.79085       -5.23765
C         -6.38307       -0.63203       -6.58220
C         -6.13932       -1.70429       -7.48709
N         -5.93874       -2.56765       -8.23368
C         -6.63958        0.62291       -7.21259
N         -6.84830        1.63894       -7.73245
C         -6.31811       -2.08522       -4.48785
C         -6.74843       -1.86903       -3.17660
C         -6.76270       -2.84237       -2.18487
C         -6.33599       -4.14109       -2.53172
C         -5.91784       -4.38158       -3.84764
C         -5.88723       -3.36307       -4.83981
S         -5.47094       -6.03689       -4.06007
C         -5.81410       -6.42221       -2.43547
C         -6.24584       -5.32628       -1.72768
C         -7.15408       -0.47170       -2.97986
O         -7.74550       -0.05297       -2.00648
C         -6.73497        0.25289       -4.22377
C         -6.53444        1.58199       -4.25661
C         -6.74058        2.52871       -3.14823
C         -7.96689        3.19559       -3.01251
C         -8.10635        4.14083       -1.97576
C         -7.06889        4.42457       -1.08726
C         -5.84247        3.74511       -1.24129
C         -5.69165        2.80285       -2.26796
C         -7.54599        5.40479       -0.16037
C         -8.86363        5.70408       -0.50263
N         -9.17507        4.93882       -1.60976
C        -10.44342        4.94297       -2.30712
C         -9.62603        6.63048        0.23765
C         -9.05538        7.28458        1.35056
C         -7.73131        6.98215        1.68851
C         -6.97483        6.05651        0.95140
C         -9.83531        8.26883        2.14066
C         -9.77627        8.62171        3.47595
C        -10.72023        9.66534        3.83553
N        -10.82616       10.17857        5.09618
C         -9.94806        9.59251        5.96514
C         -9.98711       10.11706        7.35256
O        -10.75247       11.00491        7.70820
C         -9.05704        9.53493        8.33929
C         -8.21368        8.55454        8.01642
C         -8.15208        7.99931        6.65096
O         -7.36438        7.09205        6.41389
C         -9.05211        8.57684        5.62316
N         -8.92202        8.04513        4.37048
C        -11.49512       10.08811        2.77217
S        -11.03982        9.21803        1.35487
C        -12.59193       11.08343        2.69275
C        -13.41951       11.32809        3.80479
C        -14.48831       12.24110        3.68471
C        -14.74793       12.92419        2.49920
C        -13.90792       12.69869        1.39464
C        -12.84912       11.78731        1.50519
C        -15.91319       13.72457        2.70322
C        -16.35227       13.50513        4.00933
N        -15.44643       12.64360        4.59721
C        -15.48603       12.18531        5.97020
C        -17.52937       14.09821        4.50218
C        -18.30771       14.86568        3.62832
C        -17.84490       15.15219        2.34346
C        -16.64677       14.60044        1.87622
C        -19.60057       15.39776        4.06397
C        -20.81602       14.89192        3.80060
C        -21.31541       13.70734        3.08267
C        -20.84294       12.43791        3.13785
C        -21.40181       11.36591        2.38815
N        -21.84551       10.48457        1.76907
C        -19.86366       12.00725        4.07921
N        -19.16486       11.55402        4.88899
C        -22.66996       14.07685        2.55249
C        -23.06898       15.26824        3.16765
C        -21.98237       15.81616        3.99508
O        -22.02739       16.84078        4.64384
C        -24.32496       15.84583        3.00752
C        -25.26157       15.16860        2.19439
C        -24.86098       13.99266        1.54686
C        -23.56018       13.44495        1.69055
S        -26.14668       13.32826        0.60509
C        -27.22973       14.55504        1.07746
C        -26.63322       15.47918        1.90243
H         -7.08844       -2.60044       -1.17683
H         -5.52721       -3.62150       -5.82870
H         -5.68120       -7.43237       -2.07133
H         -6.50351       -5.36730       -0.67568
H         -6.12084        2.07933       -5.12870
H         -8.78891        2.98903       -3.69068
H         -5.01769        3.95102       -0.56550
H         -4.73770        2.29117       -2.36792
H        -11.10007        5.71832       -1.90997
H        -10.90926        3.96314       -2.17558
H        -10.25670        5.14362       -3.36556
H        -10.65452        6.82435       -0.04776
H         -7.25113        7.45886        2.54099
H         -5.95295        5.83805        1.24859
H         -9.10010        9.94615        9.34240
H         -7.53317        8.12084        8.74172
H        -13.25968       10.80969        4.74585
H        -14.08568       13.20992        0.45332
H        -12.23080       11.64019        0.62249
H        -16.28759       12.68199        6.51864
H        -14.52864       12.42857        6.43917
H        -15.65278       11.10519        5.97011
H        -17.87092       13.90030        5.51422
H        -18.40710       15.81311        1.68714
H        -16.29812       14.82450        0.87219
H        -19.51664       16.37127        4.55046
H        -24.58041       16.77115        3.51667
H        -23.32422       12.53685        1.14897
H        -28.25223       14.54414        0.72450
H        -27.16119       16.33742        2.30093
