99

C          0.31144        3.18479       -1.22950
C          1.39781        3.79385       -0.69390
C          2.71592        3.60699       -1.19733
N          3.79429        3.45771       -1.60146
C          1.30772        4.72152        0.38536
N          1.23305        5.46832        1.26972
C          0.29408        2.30868       -2.44528
C         -1.02612        2.20655       -2.88849
C         -1.42815        1.45841       -3.98882
C         -0.43404        0.76873       -4.71349
C          0.89709        0.86408       -4.28572
C          1.28218        1.61909       -3.14387
S          1.94381       -0.04025       -5.32118
C          0.65454       -0.55184       -6.31203
C         -0.55397       -0.06470       -5.87547
C         -1.93423        2.96212       -2.01763
O         -3.09870        3.19201       -2.26625
C         -1.10798        3.38905       -0.83743
C         -1.62957        3.71937        0.35792
C         -3.02556        3.74334        0.63321
C         -3.83406        2.71127        1.11456
C         -5.17190        3.13453        1.24929
C         -5.31468        4.46535        0.93176
S         -3.91547        5.22887        0.46432
C         -6.66719        4.82644        1.09454
C         -7.37665        3.72689        1.51399
C         -6.47320        2.58401        1.62992
C         -6.76961        1.31729        1.98130
C         -5.77283        0.30639        2.03666
N         -4.95653       -0.51919        2.08669
C         -8.09258        0.91810        2.31333
N         -9.16807        0.57997        2.59153
C         -8.74163        4.02945        1.68810
C         -9.02563        5.36851        1.38303
S         -7.57214        6.19213        0.86788
C        -10.33205        6.07855        1.40056
C        -10.51716        7.45128        1.69759
C        -11.81860        8.08876        1.68042
N        -11.92027        9.41145        1.95567
C        -10.79531       10.10193        2.24644
C         -9.56583        9.49799        2.26646
N         -9.42715        8.18371        2.01083
F         -8.46014       10.20494        2.53736
F        -10.90970       11.40791        2.52338
C        -13.00248        7.37595        1.37910
C        -12.86037        5.97793        1.11642
C        -11.50727        5.32908        1.10702
N        -11.57006        4.02372        0.78427
S        -13.15229        3.62794        0.56318
N        -13.84079        5.08936        0.87073
C        -14.34626        8.00726        1.33117
C        -14.87403        9.05987        2.09477
C        -16.21685        9.33490        1.75130
C        -16.64424        8.51808        0.73296
S        -15.50529        7.48784        0.12942
C        -17.99398        8.79074        0.45521
C        -18.42260        9.80181        1.27965
C        -17.32239       10.20599        2.15680
C        -17.34802       11.12806        3.13893
C        -16.20339       11.40774        3.93081
N        -15.26993       11.64092        4.58186
C        -18.53668       11.85066        3.44109
N        -19.52650       12.41347        3.66472
C        -19.77967       10.10958        1.05094
C        -20.36722        9.17013        0.20421
S        -19.14922        8.16648       -0.55260
C        -21.71600        8.93143       -0.16040
C        -22.81325        9.15301        0.57610
C        -23.17404        9.69104        1.90439
C        -22.53054        9.57146        3.09600
C        -23.03565       10.11877        4.31135
N        -23.43411       10.55694        5.31239
C        -21.34009        8.82270        3.30100
N        -20.36675        8.23940        3.57103
C        -24.59628       10.16361        1.78166
C        -25.12841        9.66746        0.59021
C        -24.09400        8.98973       -0.19336
O        -24.26335        8.45380       -1.27003
C        -26.45027        9.82254        0.19206
C        -27.31442       10.52215        1.05908
C        -26.78956       11.05965        2.24016
C        -25.42694       10.91351        2.60737
S        -28.00587       11.88025        3.14858
C        -29.21447       11.51020        2.00676
C        -28.71800       10.79879        0.94116
H         -2.47597        1.40621       -4.27092
H          2.32867        1.62427       -2.86075
H          0.83923       -1.18772       -7.16754
H         -1.49270       -0.28490       -6.37047
H         -1.00370        3.92900        1.21742
H         -3.45155        1.72102        1.32591
H         -9.50185        3.32402        2.00072
H        -14.30396        9.56954        2.86259
H        -20.35013       10.87975        1.55104
H        -21.85280        8.52817       -1.16824
H        -26.80115        9.40513       -0.74854
H        -25.09487       11.37907        3.52712
H        -30.23336       11.83588        2.16758
H        -29.33247       10.47589        0.11010
