101

C         -3.91829       -5.24294       -5.03235
C         -3.54773       -6.30871       -5.77887
C         -3.14263       -7.54795       -5.20587
N         -2.80471       -8.55622       -4.73900
C         -3.44476       -6.23940       -7.19228
N         -3.37251       -6.17848       -8.35009
C         -3.91184       -5.18614       -3.54512
C         -3.77753       -3.85333       -3.15439
C         -3.64912       -3.45360       -1.82967
C         -3.68887       -4.45804       -0.83246
C         -3.92878       -5.78415       -1.21926
C         -4.05334       -6.17066       -2.57474
S         -4.04403       -6.82715        0.15073
C         -3.65916       -5.57015        1.23292
C         -3.50834       -4.36436        0.58906
C         -3.84186       -2.96707       -4.33315
O         -3.61728       -1.77457       -4.33693
C         -4.18208       -3.86570       -5.49731
C         -4.79866       -3.45492       -6.62120
C         -5.31630       -2.11936       -6.88879
C         -6.29861       -1.52314       -6.19081
C         -6.82557       -0.19813       -6.42255
C         -7.67239        0.21911       -5.46457
C         -7.88116       -0.75423       -4.40227
S         -7.12520       -2.28024       -4.85263
C         -8.50926       -0.58459       -3.22149
C         -9.14282        0.61955       -2.71877
C         -9.59443        0.51206       -1.45804
C         -9.36947       -0.78814       -0.86391
S         -8.62378       -1.86920       -2.00767
C         -9.69729       -1.13681        0.39131
C         -9.58721       -2.51073        0.92148
C        -10.59363       -3.46343        0.72680
C        -10.46814       -4.82385        1.18198
N        -11.49463       -5.66499        0.92731
C        -12.65847       -5.18696        0.41516
C        -12.75993       -3.89326       -0.01694
N        -11.72040       -3.03614        0.11180
C        -13.95263       -3.35193       -0.59143
N        -14.92848       -2.92913       -1.05781
C        -13.79576       -6.05768        0.50456
N        -14.74937       -6.70997        0.60749
C         -9.33925       -5.28637        1.91950
C         -8.30991       -4.32427        2.15856
C         -8.43992       -2.90715        1.65204
N         -7.38956       -2.13515        1.97887
S         -6.35770       -3.07769        2.86458
N         -7.15861       -4.52589        2.82654
C         -9.11096       -6.66200        2.46556
C         -9.97774       -7.47723        3.09410
C         -9.68071       -8.78435        3.65260
C        -10.70880       -9.34113        4.32299
C        -11.88982       -8.49541        4.37287
S        -11.62166       -7.05545        3.42632
C        -12.99545       -8.60520        5.13160
C        -13.27196       -9.59232        6.15201
C        -14.09318       -9.11688        7.10393
C        -14.49423       -7.73761        6.87411
S        -14.22342       -7.31320        5.22180
C        -14.87075       -6.90176        7.84921
C        -15.16352       -5.48013        7.86477
C        -14.47568       -4.38550        7.49911
C        -13.22405       -4.07032        6.78777
C        -12.05729       -4.76942        6.81213
C        -10.89341       -4.34441        6.10709
N         -9.95640       -3.99407        5.51516
C        -11.86422       -5.89066        7.66039
N        -11.65058       -6.76965        8.39587
C        -13.34850       -2.65714        6.29470
C        -14.40570       -2.05789        6.98211
C        -15.12946       -3.05703        7.78001
O        -16.05244       -2.82617        8.53358
C        -14.73369       -0.70722        6.89592
C        -13.98522        0.09862        6.00922
C        -12.96240       -0.50164        5.26166
C        -12.62898       -1.88033        5.38931
S        -12.20490        0.64711        4.21520
C        -13.20557        1.91864        4.75310
C        -14.10085        1.49910        5.70847
H         -3.52440       -2.40500       -1.57546
H         -4.25196       -7.21028       -2.81106
H         -3.57016       -5.77346        2.29155
H         -3.26708       -3.44595        1.11020
H         -5.06635       -4.15828       -7.40626
H         -4.87962       -1.61676       -7.74900
H         -6.54035        0.39718       -7.27982
H         -8.14141        1.19297       -5.47508
H         -9.24192        1.52221       -3.30592
H        -10.10141        1.30883       -0.93038
H        -10.15885       -0.42070        1.06440
H         -8.07396       -6.99175        2.39577
H         -8.70755       -9.24969        3.55711
H        -10.64669      -10.30020        4.82091
H        -12.79944      -10.56386        6.19178
H        -14.35493       -9.65922        8.00150
H        -14.98936       -7.33873        8.84166
H        -16.12080       -5.30472        8.36524
H        -15.54660       -0.29401        7.48712
H        -11.82457       -2.27265        4.77764
H        -13.09505        2.91480        4.34438
H        -14.82210        2.16424        6.16989
