108

C          0.75329        3.16563        1.87190
C          1.27077        2.11841        1.17957
C          2.63712        2.07364        0.77827
N          3.76198        2.03217        0.44260
C          0.50926        0.96293        0.86104
N         -0.13395        0.03333        0.60168
C          1.48520        4.36204        2.36536
C          0.73796        4.93412        3.39352
C          1.08222        6.10852        4.05194
C          2.25157        6.77972        3.61973
C          3.01087        6.21125        2.58932
C          2.65058        5.00174        1.94477
S          4.38913        7.19183        2.22731
C          3.96123        8.36026        3.39103
C          2.80935        8.02387        4.06048
C         -0.52028        4.19863        3.59674
O         -1.28223        4.32769        4.53128
C         -0.61657        3.26722        2.42752
C         -1.78367        2.87353        1.88836
C         -3.06729        3.28667        2.36239
C         -3.97258        2.61868        3.18910
C         -5.22593        3.28887        3.22560
C         -5.20955        4.45135        2.48600
S         -3.75077        4.77803        1.75743
C         -6.51773        5.00181        2.43928
C         -7.37802        4.17054        3.12342
C         -6.57863        3.08766        3.75289
C         -6.96133        2.17833        4.67637
C         -6.03819        1.25088        5.24468
N         -5.29747        0.49804        5.73770
C         -8.28752        2.15092        5.17532
N         -9.37328        2.14419        5.58703
C         -8.73612        4.56551        2.90097
C         -8.85009        5.75310        2.13365
S         -7.24292        6.30595        1.69274
C        -10.05274        6.46586        1.62340
C        -10.63053        6.11362        0.23718
C        -11.23935        7.07652       -0.59710
C        -11.89819        6.76353       -1.78846
C        -11.76530        5.50701       -2.32914
C        -11.01904        4.56668       -1.64122
C        -10.50269        4.84744       -0.36073
F         -9.85691        3.85637        0.26981
F        -10.78586        3.37479       -2.20978
F        -12.30755        5.22266       -3.52140
F        -12.62858        7.69823       -2.41499
F        -11.10180        8.37884       -0.33434
C        -10.64934        7.41246        2.44527
C         -9.91547        7.98968        3.62821
C         -8.88359        8.92883        3.45091
C         -8.15044        9.41840        4.53512
C         -8.46345        9.01691        5.82355
C         -9.53399        8.16319        6.03056
C        -10.25240        7.65732        4.94637
F        -11.27593        6.83079        5.19732
F         -9.87295        7.80746        7.27753
F         -7.73402        9.44646        6.86302
F         -7.13381       10.26857        4.33205
F         -8.58348        9.37293        2.22058
C        -12.03363        7.85170        2.24119
C        -12.56804        8.99354        1.61663
C        -13.98197        9.01477        1.64102
C        -14.47128        8.02004        2.45375
S        -13.33622        6.92873        2.97991
C        -15.86282        8.20448        2.60593
C        -16.26356        9.25905        1.81538
C        -15.09920        9.82077        1.13210
C        -15.07422       10.82387        0.23256
C        -13.85552       11.26451       -0.35332
N        -12.85774       11.62426       -0.82378
C        -16.26258       11.46863       -0.21531
N        -17.23146       11.97420       -0.61018
C        -17.64463        9.51680        1.94751
C        -18.18224        8.77404        2.99432
S        -17.05391        7.58367        3.58317
C        -19.48394        8.81979        3.54937
C        -19.82188        9.45817        4.67951
C        -19.16186       10.30168        5.70103
C        -18.18235       11.22821        5.54927
C        -17.64494       11.98369        6.63444
N        -17.17863       12.59641        7.50306
C        -17.63908       11.63826        4.29888
N        -17.15488       12.08378        3.34169
C        -19.97856       10.14703        6.95694
C        -21.15718        9.46675        6.64106
C        -21.15570        9.04584        5.23718
O        -22.04685        8.43865        4.67903
C        -22.18926        9.22192        7.54398
C        -22.04621        9.72408        8.85543
C        -20.86223       10.38986        9.19130
C        -19.80537       10.58391        8.26545
S        -20.89064       10.93162       10.82990
C        -22.45525       10.31020       11.08737
C        -22.94891        9.67769        9.97081
H          0.44425        6.51949        4.83124
H          3.26340        4.63858        1.12563
H          4.57151        9.24247        3.53019
H          2.37180        8.64669        4.83059
H         -1.80393        2.31663        0.95655
H         -3.72714        1.67140        3.65940
H         -9.60429        3.99396        3.21558
H        -11.95035        9.73341        1.11869
H        -18.20918       10.28948        1.43512
H        -20.22062        8.19073        3.04605
H        -23.08177        8.68394        7.23580
H        -18.91655       11.09316        8.61512
H        -22.93887       10.43357       12.04711
H        -23.92679        9.21222        9.94290
