130

C         -7.55519       -1.28750        5.27231
C         -6.60964       -2.24551        5.40343
C         -6.62775       -3.20004        6.45839
N         -6.64311       -3.97413        7.32268
C         -5.55821       -2.39909        4.45395
N         -4.70039       -2.50023        3.68691
C         -8.76133       -1.08428        6.13059
C         -9.69159       -0.33790        5.40062
C        -10.90139        0.11651        5.90409
C        -11.18909       -0.17094        7.25428
C        -10.26733       -0.92220        7.99896
C         -9.04373       -1.39605        7.45452
S        -10.82205       -1.14779        9.61901
C        -12.23785       -0.23942        9.34619
C        -12.31158        0.22470        8.05525
C         -9.15014        0.01884        4.08522
O         -9.78859        0.45470        3.15249
C         -7.69134       -0.31501        4.16683
C         -6.72744        0.40759        3.57052
C         -7.00925        1.60236        2.85270
C         -7.03841        2.88439        3.33631
C         -7.37329        3.92991        2.38255
C         -7.56105        5.34616        2.53821
C         -7.64880        6.01152        3.92543
C         -7.80115        7.34684        4.31792
C         -7.88849        7.58235        5.72404
C         -7.81901        6.41942        6.43922
S         -7.68538        5.09227        5.39811
C         -7.90109        6.21464        7.91262
Cl        -8.09172        9.15070        6.37876
C         -7.70114        6.13488        1.35485
C         -7.79637        5.57917        0.06398
C         -7.64178        4.15571       -0.09191
C         -7.44851        3.36465        1.08859
S         -7.29917        1.62762        1.20802
C         -7.63226        3.48855       -1.47647
C         -7.49539        2.15434       -1.87311
C         -7.56307        1.90726       -3.27760
C         -7.74389        3.06092       -3.98771
S         -7.72936        4.39526       -2.95167
C         -7.91883        3.24668       -5.45475
Cl        -7.43979        0.33347       -3.93636
C         -8.10244        6.65241       -0.88274
C         -8.09269        7.94039       -0.39941
S         -7.70459        7.85912        1.23106
C         -8.33764        9.22730       -1.09829
C         -8.54766        9.25964       -2.48895
C         -8.78270       10.46657       -3.16679
F         -8.96346       10.41066       -4.49533
C         -8.81580       11.69362       -2.49788
C         -8.61837       11.66486       -1.11291
C         -8.38330       10.46615       -0.43706
F         -8.21027       10.56796        0.88880
C         -9.04910       12.96798       -3.19783
C         -9.82843       13.26183       -4.29094
C         -9.80840       14.66130       -4.70088
C        -10.42658       15.32217       -5.79574
C        -11.22334       14.54939       -6.79584
C        -12.44175       14.85980       -7.38967
C        -12.86643       13.90935       -8.36379
C        -12.01882       12.82903       -8.43957
S        -10.62582       13.07961       -7.47907
C        -12.14649       11.58810       -9.25973
Cl       -14.28411       14.13541       -9.29735
C        -10.29678       16.72181       -5.94846
C         -9.63058       17.50719       -4.99105
C         -8.96243       16.85970       -3.89072
C         -9.04474       15.43246       -3.80308
S         -8.25218       14.36888       -2.69292
C         -8.16592       17.65933       -2.84789
C         -7.54426       17.28439       -1.65249
C         -6.90370       18.33858       -0.92501
C         -7.05600       19.55054       -1.54188
S         -7.82733       19.35129       -3.03461
C         -6.61226       20.91058       -1.11994
Cl        -6.07317       18.05739        0.54459
C         -9.81659       18.89460       -5.33962
C        -10.34414       19.15974       -6.58272
S        -10.86631       17.71130       -7.27660
C        -10.54798       20.43047       -7.20680
C         -9.68310       21.45000       -7.07916
C         -8.35687       21.60233       -6.46873
C         -7.28164       20.79299       -6.65536
C         -5.99473       21.07971       -6.09821
N         -4.96196       21.31807       -5.64099
C         -7.32820       19.65649       -7.51354
N         -7.33869       18.74631       -8.23500
C         -8.32282       22.95927       -5.86371
C         -9.36630       23.70613       -6.42294
C        -10.21893       22.84706       -7.27023
O        -11.19965       23.19152       -7.90023
C         -9.59188       25.04441       -6.12520
C         -8.73018       25.66645       -5.18923
C         -7.72101       24.90063       -4.58627
C         -7.50440       23.53806       -4.90275
S         -6.82318       25.83340       -3.44504
C         -7.72493       27.24110       -3.77054
C         -8.70767       27.01860       -4.70613
H        -11.56570        0.72036        5.29214
H         -8.35552       -1.93465        8.09701
H        -12.95099       -0.08394       10.14436
H        -13.13232        0.83197        7.69139
H         -5.67679        0.23157        3.78063
H         -6.81388        3.03077        4.37845
H         -7.87485        8.19328        3.65870
H         -7.29786        6.95557        8.44729
H         -7.54293        5.22365        8.21129
H         -8.94035        6.31253        8.24312
H         -7.35725        1.31434       -1.21774
H         -7.12967        2.72727       -6.00700
H         -7.88725        4.30221       -5.74557
H         -8.88671        2.84288       -5.77046
H         -8.33348        6.50533       -1.91993
H         -8.53104        8.35509       -3.09031
H         -8.64665       12.57157       -0.51408
H        -10.39803       12.48977       -4.79196
H        -13.00426       15.75870       -7.16965
H        -13.19751       11.34180       -9.44803
H        -11.70309       10.72267       -8.75501
H        -11.64954       11.71874      -10.22577
H         -7.51656       16.28697       -1.24912
H         -6.35998       20.94581       -0.05578
H         -7.40286       21.65163       -1.28786
H         -5.72985       21.21669       -1.69083
H         -9.54342       19.72880       -4.72460
H        -11.51521       20.59753       -7.67109
H        -10.41414       25.58549       -6.58532
H         -6.72130       22.99379       -4.38664
H         -7.49499       28.16519       -3.25711
H         -9.38771       27.79500       -5.03756
