99

C         -2.65334       -1.13385        0.96326
C         -2.06416       -1.96638        0.06995
C         -1.31324       -3.11753        0.44172
N         -0.69528       -4.06010        0.72525
C         -2.16162       -1.78800       -1.33825
N         -2.23178       -1.66675       -2.49901
C         -2.66536       -1.31417        2.45533
C         -3.48051       -0.32277        3.01215
C         -3.70870       -0.15660        4.37209
C         -3.09854       -1.06671        5.25751
C         -2.30988       -2.09145        4.72084
C         -2.07640       -2.22786        3.32420
S         -1.70075       -3.11877        5.96893
C         -2.44389       -2.20028        7.19769
C         -3.14487       -1.13329        6.68943
C         -4.06821        0.52232        1.97367
O         -4.92409        1.35668        2.18536
C         -3.46012        0.08280        0.67061
C         -3.68361        0.75909       -0.47308
C         -4.54214        1.95452       -0.62218
C         -5.88761        1.90700       -1.05129
O         -6.40595        0.69138       -1.43914
C         -6.64113       -0.22899       -0.37394
C         -6.63799        3.11102       -1.22858
O         -7.94830        3.19254       -1.61290
C         -8.75054        2.11930       -2.05913
C         -6.03750        4.38763       -0.95636
C         -4.67455        4.36943       -0.57372
C         -3.95061        3.19095       -0.38361
C         -6.75121        5.73406       -0.98858
C         -7.65288        6.21201       -1.98092
C         -8.28101        7.52972       -1.93133
N         -9.09095        7.92054       -2.93609
C         -9.43471        7.03335       -3.88272
C         -8.89179        5.78217       -3.90690
N         -7.95786        5.40106       -3.01516
C         -8.13490        8.43709       -0.85580
C         -7.21406        8.00655        0.14540
C         -6.51555        6.67028        0.07395
N         -5.68257        6.49328        1.11877
S         -5.73969        7.83106        2.06872
N         -6.87245        8.69353        1.25259
C         -8.90285        9.72728       -0.68157
C        -10.26656        9.92203       -1.02691
O        -11.11505        8.90889       -1.41390
C        -11.17422        7.76260       -0.56965
C        -10.86872       11.21487       -0.97979
O        -12.11857       11.45703       -1.50903
C        -12.30053       11.05952       -2.86897
C        -10.25004       12.26039       -0.26608
C         -8.93422       12.05138        0.15248
C         -8.26524       10.85110       -0.11530
C        -10.80107       13.60069        0.05783
C        -12.05472       14.03574        0.25405
C        -13.36865       13.41057        0.13493
C        -13.76467       12.23228        0.67157
C        -15.07107       11.70640        0.47057
N        -16.12979       11.27300        0.27735
C        -12.91316       11.45707        1.51486
N        -12.25980       10.82788        2.24035
C        -14.25074       14.44451       -0.46722
C        -13.65502       15.69365       -0.25819
C        -12.29476       15.51955        0.28637
O        -11.52842       16.39895        0.61793
C        -14.23554       16.89798       -0.63404
C        -15.47218       16.83821       -1.31855
C        -16.03327       15.58239       -1.59658
C        -15.43849       14.36734       -1.17708
S        -17.49529       15.73662       -2.50023
C        -17.41301       17.43734       -2.48906
C        -16.29640       17.89648       -1.83162
H         -4.34244        0.65007        4.73459
H         -1.44790       -3.04612        2.99497
H         -2.33313       -2.48298        8.23601
H         -3.68121       -0.42768        7.31370
H         -3.24767        0.47900       -1.42479
H         -7.45908       -0.88910       -0.67793
H         -6.92597        0.26060        0.56324
H         -5.77513       -0.87803       -0.23004
H         -8.25685        1.18652       -2.31423
H         -9.26684        2.43489       -2.97353
H         -9.51191        1.93598       -1.29777
H         -4.14129        5.29982       -0.38325
H         -2.91807        3.25998       -0.04990
H        -10.17961        7.35899       -4.59872
H         -9.19631        5.03663       -4.63103
H        -10.40831        7.71869        0.20846
H        -11.08810        6.87551       -1.20612
H        -12.15311        7.72518       -0.08538
H        -13.28096       11.43378       -3.18489
H        -12.33906        9.97584       -2.99356
H        -11.54519       11.50165       -3.52610
H         -8.39384       12.82545        0.69713
H         -7.21980       10.81199        0.18329
H        -10.02049       14.36548        0.11896
H        -13.73704       17.84329       -0.43864
H        -15.90339       13.42453       -1.44319
H        -18.18578       18.02150       -2.96969
H        -16.06856       18.95043       -1.72582
