67

C         -0.29892        1.19686        0.02608
C         -1.13415        0.12673        0.27540
C         -2.45402        0.33399        0.82828
O         -2.73987        1.32653        1.48028
O         -3.39936       -0.57968        0.51306
C         -0.34833       -0.99618       -0.11967
N          0.83817       -0.59563       -0.60636
O          0.86322        0.77375       -0.50591
C         -0.63512       -2.47622       -0.06424
C          0.25625       -3.42629       -0.52410
C         -0.23892       -4.76750       -0.42330
C         -1.51309       -4.79289        0.13271
S         -2.03261       -3.21562        0.55769
C         -2.20678       -5.99628        0.29060
C         -1.63050       -7.21928       -0.09067
C         -0.33922       -7.19417       -0.60243
C          0.34275       -5.98993       -0.78570
S          0.24020       -8.77150       -0.91767
C         -1.25733       -9.51428       -0.52044
C         -2.14719       -8.55959       -0.05750
C         -1.41371      -10.98009       -0.64359
C         -0.91992      -11.74590       -1.72484
C         -1.01675      -13.18731       -1.75926
N         -0.45078      -13.85986       -2.78813
C          0.13352      -13.16757       -3.78665
C          0.18235      -11.79971       -3.77409
N         -0.34264      -11.08889       -2.75734
F          0.76630      -11.12993       -4.77682
F          0.65675      -13.85697       -4.80943
C         -1.68675      -13.92890       -0.75178
C         -2.23641      -13.18413        0.33263
C         -2.08926      -11.68643        0.39164
N         -2.64886      -11.15998        1.49666
S         -3.32012      -12.39715        2.35714
N         -2.92475      -13.66896        1.38283
C         -1.86505      -15.40249       -0.76748
C         -1.87509      -16.31676        0.27612
C         -2.07713      -17.68098       -0.13879
C         -2.18963      -17.76439       -1.51993
S         -2.17926      -16.21902       -2.24670
C         -2.32181      -18.99559       -2.16333
C         -2.40841      -20.18837       -1.43353
C         -2.34033      -20.10976       -0.04587
C         -2.16296      -18.87777        0.59633
S         -2.49350      -21.66721        0.66909
C         -2.68370      -22.44494       -0.83840
C         -2.57020      -21.54186       -1.87466
C         -2.86829      -23.86518       -0.98657
C         -3.46299      -24.82945       -0.18463
C         -4.16898      -24.71741        1.06750
O         -4.13470      -25.59289        1.92013
O         -4.96354      -23.62803        1.20650
C         -3.21635      -26.04596       -0.86115
N         -2.60362      -25.86068       -2.02687
O         -2.39442      -24.50129       -2.11112
H         -0.39886        2.26639        0.15169
H         -3.07769       -1.32553       -0.02421
H          1.22937       -3.18272       -0.93828
H         -3.20845       -5.99047        0.71561
H          1.34301       -5.99898       -1.21466
H         -3.14446       -8.79699        0.29448
H         -1.74054      -16.03589        1.31432
H         -2.37436      -19.02865       -3.24989
H         -2.09667      -18.84111        1.68210
H         -2.62333      -21.82655       -2.92021
H         -4.96746      -23.03104        0.43587
H         -3.48704      -27.05004       -0.56079
