167

C          2.54980        2.72432        1.81233
C          2.29619        1.96591        3.14822
C          3.35780        1.40673        3.89379
C          3.15905        0.83920        5.15626
C          1.89268        0.83491        5.72430
C          0.82572        1.39078        5.02491
C          1.02329        1.95382        3.75566
C          1.34211        2.74844        0.82064
C          0.74329        3.93554        0.34173
C         -0.33323        3.91816       -0.55333
C         -0.83535        2.71162       -1.01576
C         -0.25899        1.52156       -0.58365
C          0.80486        1.53904        0.33031
C          3.85977        2.31427        1.07370
C          4.87126        3.23340        1.10368
C          4.62638        4.46180        1.89054
C          5.49929        5.44281        2.28500
C          6.90230        5.34665        2.07257
N          8.05032        5.25240        1.95033
C          5.05421        6.60552        3.02883
N          4.70734        7.55220        3.59432
S          2.96051        4.50407        2.40253
C          6.05636        3.06057        0.32434
N          6.98829        2.93591       -0.34987
C          4.09101        1.05127        0.40216
C          3.76351        0.64595       -0.88054
C          4.17598       -0.71056       -1.22268
C          4.65939       -1.37545       -0.08098
S          4.95075       -0.20342        1.16772
C          4.89892       -2.78909       -0.04769
C          5.38275       -3.51524        1.20142
C          5.02534       -3.13077        2.51150
C          5.51473       -3.77501        3.66631
C          6.33956       -4.89169        3.56748
C          6.71028       -5.30995        2.29109
C          6.25573       -4.62545        1.14229
C          6.85297       -5.58208        4.79874
C          4.68766       -3.52019       -1.26170
C          4.45962       -2.80674       -2.44505
C          4.13198       -1.41948       -2.46639
C          3.73470       -0.71062       -3.75049
C          2.99890       -1.34673       -4.77489
C          2.64302       -0.70763       -5.97925
C          2.94388        0.63466       -6.19005
C          3.65405        1.30331       -5.19340
C          4.06824        0.63323       -4.02187
C          2.52350        1.34055       -7.44794
S          4.77170       -3.86756       -3.78256
C          4.48416       -5.29053       -2.87773
C          4.58223       -4.95119       -1.53727
C          4.29852       -6.60479       -3.56157
C          3.65013       -6.78441       -4.81574
C          3.52360       -8.07780       -5.46726
N          2.89864       -8.17433       -6.66546
C          2.40412       -7.05050       -7.22690
C          2.52141       -5.82890       -6.61648
N          3.12079       -5.69612       -5.41751
F          2.03172       -4.72503       -7.19812
F          1.76260       -7.16083       -8.39865
C          4.03005       -9.26345       -4.89357
C          4.61900       -9.14124       -3.59767
C          4.76734       -7.79252       -2.93065
N          5.37984       -7.88241       -1.73577
S          5.69692       -9.47439       -1.44744
N          5.08211      -10.14001       -2.82327
C          3.96109      -10.59259       -5.55353
C          2.94345      -11.18127       -6.27391
C          3.18440      -12.55420       -6.70715
C          4.52721      -12.89619       -6.47292
S          5.31462      -11.60812       -5.60696
C          5.10729      -14.12952       -6.91979
C          6.57802      -14.44722       -6.67301
C          7.23789      -14.12481       -5.46454
C          8.60565      -14.37146       -5.23793
C          9.37282      -15.04057       -6.18522
C          8.75842      -15.38817       -7.38593
C          7.40560      -15.06531       -7.63195
C         10.82111      -15.33239       -5.92142
C          4.25227      -15.06312       -7.60462
C          2.89817      -14.75766       -7.75668
C          2.32151      -13.52679       -7.31155
C          0.83006      -13.27251       -7.42369
C         -0.12110      -14.27756       -7.13590
C         -1.50735      -14.08311       -7.26749
C         -2.01801      -12.83140       -7.59741
C         -1.11175      -11.80547       -7.85900
C          0.27800      -12.03631       -7.80945
C         -3.49716      -12.61833       -7.73179
S          2.10266      -16.04866       -8.59187
C          3.43194      -17.12641       -8.61839
C          4.52323      -16.36593       -8.20939
C          3.25777      -18.51311       -9.10056
C          4.33363      -19.35448       -9.30297
C          4.06691      -20.70062       -9.85265
C          4.93418      -21.70221      -10.17789
C          6.36204      -21.62290      -10.09956
N          7.51616      -21.59754      -10.07430
C          4.46249      -22.96807      -10.65490
N          4.10340      -24.00665      -11.02976
S          2.34397      -20.91380      -10.11300
C          1.85506      -19.18599       -9.42623
C          1.11291      -18.56311      -10.65185
C         -0.26764      -18.75942      -10.87101
C         -0.90455      -18.28215      -12.02354
C         -0.17186      -17.63518      -13.01199
C          1.19438      -17.44997      -12.84098
C          1.82762      -17.90362      -11.67825
C          1.02316      -19.40698       -8.11174
C          1.28826      -20.47432       -7.22200
C          0.54862      -20.66807       -6.04586
C         -0.45143      -19.77369       -5.69876
C         -0.72283      -18.69586       -6.52613
C         -0.00197      -18.52056       -7.71676
C          5.67527      -19.00602       -8.99626
N          6.78080      -18.75245       -8.75190
H          4.37999        1.42726        3.52844
H          4.00233        0.42238        5.70257
H          1.74213        0.41573        6.71625
H         -0.16258        1.40505        5.47908
H          0.16625        2.41547        3.26747
H          1.08108        4.92172        0.64869
H         -0.77482        4.85483       -0.88681
H         -1.67246        2.69895       -1.70983
H         -0.63977        0.57456       -0.95936
H          1.21677        0.58047        0.64360
H          3.25317        1.30735       -1.56390
H          4.34616       -2.30364        2.68918
H          5.23129       -3.39293        4.64555
H          7.36562       -6.17111        2.17076
H          6.61799       -4.99662        0.18594
H          6.16182       -5.45302        5.63979
H          7.82767       -5.17580        5.08756
H          6.95477       -6.66010        4.63276
H          2.67907       -2.38075       -4.67476
H          2.12163       -1.28003       -6.74458
H          3.90683        2.35439       -5.32182
H          4.67166        1.20644       -3.32218
H          1.96909        0.67482       -8.11942
H          3.39809        1.70803       -7.99488
H          1.86880        2.18657       -7.21224
H          4.55784       -5.69165       -0.74648
H          2.03024      -10.63766       -6.46166
H          6.70867      -13.65121       -4.64349
H          9.05686      -14.04310       -4.30334
H          9.32394      -15.91346       -8.15418
H          7.02702      -15.31857       -8.61757
H         10.95534      -15.72497       -4.90694
H         11.41880      -14.42124       -6.02780
H         11.21259      -16.08516       -6.61390
H          0.19537      -15.26326       -6.80532
H         -2.18014      -14.92121       -7.09703
H         -1.47459      -10.81272       -8.11922
H          0.91511      -11.20498       -8.09524
H         -4.04900      -13.25141       -7.02809
H         -3.82262      -12.85906       -8.74891
H         -3.76849      -11.58015       -7.51211
H          5.53094      -16.72796       -8.26312
H         -0.87834      -19.30819      -10.15539
H         -1.97319      -18.43533      -12.15891
H         -0.66091      -17.29007      -13.91957
H          1.77504      -16.96225      -13.62061
H          2.90078      -17.74798      -11.60899
H          2.07066      -21.20305       -7.42040
H          0.76171      -21.52012       -5.40443
H         -1.01965      -19.91537       -4.77761
H         -1.49815      -17.98446       -6.25175
H         -0.27364      -17.66625       -8.33301
