119

C          3.94859        2.74165       -2.30393
C          4.52087        2.71872       -3.76363
C          5.83450        2.26161       -4.00820
C          6.38133        2.23073       -5.30176
C          5.62838        2.63803       -6.39798
C          4.33492        3.09310       -6.19789
C          3.79598        3.13838       -4.90521
C          4.70521        3.60851       -1.25828
C          5.80994        4.41363       -1.59475
C          6.40902        5.27338       -0.66329
C          5.90703        5.37217        0.62847
C          4.81224        4.60008        0.99499
C          4.22480        3.72641        0.07035
C          3.55764        1.29381       -1.79695
C          2.23425        1.00961       -1.86799
C          1.36597        2.02241       -2.48012
C          0.19457        1.86368       -3.14716
C         -0.36435        0.58367       -3.42612
N         -0.81041       -0.45335       -3.69399
C         -0.51714        2.97347       -3.70048
N         -1.10262        3.86271       -4.16134
S          2.15202        3.58067       -2.33669
C          1.62879       -0.13399       -1.25419
N          1.05837       -0.98874       -0.71243
C          4.47053        0.24277       -1.35005
C          4.95757       -0.10287       -0.08011
C          5.76705       -1.27935       -0.11198
C          5.80514       -1.80817       -1.37971
S          5.00868       -0.92904       -2.54092
C          6.52732       -3.02140       -1.35680
C          6.99435       -3.26338       -0.08771
C          6.54241       -2.16231        0.78349
C          6.79553       -2.00522        2.10058
C          7.58120       -2.93568        2.83407
N          8.23056       -3.69087        3.42815
C          6.29812       -0.88049        2.81686
N          5.88767        0.04650        3.39092
C          7.73157       -4.48175       -0.03854
C          7.77772       -5.12646       -1.29033
S          6.82444       -4.22436       -2.45079
C          8.43124       -6.40351       -1.71985
C          8.96006       -6.64622       -3.01700
C          9.53703       -7.91740       -3.40875
N          9.93720       -8.09663       -4.68891
C          9.84355       -7.07431       -5.56200
C          9.33996       -5.86141       -5.18209
N          8.91591       -5.64207       -3.92151
F          9.24006       -4.85762       -6.06400
F         10.27015       -7.27166       -6.81656
C          9.70002       -8.99516       -2.50242
C          9.18306       -8.79318       -1.19016
C          8.52478       -7.48683       -0.79860
N          8.06296       -7.51192        0.46469
S          8.44214       -8.98221        1.11313
N          9.21290       -9.67176       -0.17191
C         10.37341      -10.28781       -2.82393
C         10.13814      -11.58747       -2.34207
C         11.02063      -12.53793       -2.91455
C         11.86688      -11.94102       -3.81287
S         11.74036      -10.29696       -3.91693
C         12.69201      -12.92056       -4.39316
C         12.39640      -14.14859       -3.86352
C         11.32594      -13.97498       -2.86427
C         10.77838      -14.89805       -2.05460
C         11.19057      -16.25462       -2.10487
N         11.53955      -17.36214       -2.15951
C          9.78260      -14.56710       -1.09742
N          8.96879      -14.30042       -0.31430
C         13.23032      -15.15363       -4.43376
C         14.10243      -14.65227       -5.42974
S         13.92072      -12.90539       -5.48647
C         15.06514      -15.36570       -6.29568
C         15.37285      -14.93764       -7.56140
C         16.26913      -15.78240       -8.36814
C         16.47292      -15.78809       -9.70961
C         15.69133      -15.02642      -10.62385
N         15.02498      -14.45134      -11.38006
C         17.45544      -16.62600      -10.32228
N         18.26067      -17.28696      -10.83390
S         17.08167      -16.92763       -7.34199
C         15.81908      -16.68615       -5.87712
C         14.96876      -17.98691       -5.95997
C         15.57841      -19.24896       -5.76624
C         14.88159      -20.44086       -5.99416
C         13.54984      -20.40567       -6.39119
C         12.91643      -19.18074       -6.56345
C         13.61936      -17.98798       -6.36329
C         16.64996      -16.48247       -4.57643
C         17.91465      -15.84414       -4.58944
C         18.67815      -15.67688       -3.43039
C         18.17672      -16.09467       -2.20739
C         16.91641      -16.68391       -2.14965
C         16.16379      -16.88302       -3.31817
C         15.00305      -13.67690       -8.12584
N         14.80350      -12.64405       -8.61331
H          6.47268        1.94478       -3.18450
H          7.40268        1.88952       -5.45598
H          6.04696        2.60742       -7.40098
H          3.73815        3.42410       -7.04655
H          2.78584        3.53263       -4.84567
H          6.22195        4.42638       -2.59993
H          7.25729        5.88672       -0.95987
H          6.35637        6.06104        1.33995
H          4.39875        4.69440        1.99708
H          3.33982        3.18309        0.39754
H          4.70533        0.45894        0.81238
H          8.21050       -4.89413        0.84435
H          9.36239      -11.80860       -1.61848
H         13.19089      -16.20175       -4.16252
H         16.63003      -19.32000       -5.48687
H         15.38671      -21.39777       -5.88201
H         13.00882      -21.33033       -6.57686
H         11.87537      -19.15049       -6.87720
H         13.07765      -17.06782       -6.55919
H         18.35786      -15.47131       -5.51011
H         19.66322      -15.21875       -3.49095
H         18.76563      -15.95708       -1.30372
H         16.51985      -16.99718       -1.18640
H         15.19383      -17.36621       -3.21893
