75

C         -1.48615       -0.73238       -0.74749
C         -1.58075       -1.70870        0.16731
C         -2.46007       -1.51174        1.32835
C         -2.62327       -2.45765        2.28980
C         -3.47759       -2.25597        3.41472
N         -4.17840       -2.07207        4.32145
C         -1.95178       -3.71195        2.23103
N         -1.39701       -4.72707        2.16557
C         -3.15895       -0.22094        1.39898
C         -2.98117        0.69687        0.42933
O         -2.16485        0.46806       -0.67655
C         -3.63012        1.96900        0.44825
C         -3.99831        2.76547       -0.62356
C         -4.63976        3.99185       -0.24723
C         -4.74680        4.09726        1.13381
S         -4.03654        2.75887        1.92362
C         -5.37137        5.19421        1.72886
C         -5.90140        6.23208        0.95077
C         -5.74922        6.15400       -0.42774
C         -5.14566        5.04463       -1.02477
S         -6.35576        7.55609       -1.19962
C         -6.98887        8.20795        0.25789
C         -6.62016        7.41204        1.32762
C         -7.74596        9.47675        0.26177
C         -7.59744       10.45914        1.26706
C         -8.36015       11.68738        1.26265
N         -8.21337       12.56040        2.28566
C         -7.31921       12.28984        3.25685
C         -6.57455       11.13969        3.24247
N         -6.70950       10.22252        2.26197
F         -5.69403       10.88968        4.22110
F         -7.17130       13.18362        4.24417
C         -9.26643       12.01143        0.22266
C         -9.45499       11.03303       -0.79639
C         -8.70503        9.73472       -0.76091
N         -9.07266        8.91132       -1.75963
S        -10.15526        9.71041       -2.70736
N        -10.26486       11.12437       -1.86814
C        -10.03476       13.27322        0.13131
C        -11.31489       13.49096       -0.35076
C        -11.73693       14.85869       -0.29163
C        -10.75416       15.65945        0.27433
S         -9.33032       14.76876        0.59613
C        -10.97530       17.01854        0.49847
C        -12.18393       17.62438        0.12575
C        -13.15289       16.83265       -0.47837
C        -12.93726       15.46877       -0.68599
S        -14.54707       17.74352       -0.88231
C        -13.90332       19.20357       -0.23765
C        -12.62953       18.97838        0.25691
C        -14.66379       20.41066       -0.27657
C        -14.06625       21.61597       -0.34917
C        -14.88921       22.83711       -0.38596
C        -14.33285       24.07226       -0.48377
C        -15.12527       25.25658       -0.51856
N        -15.78421       26.21101       -0.54533
C        -12.92108       24.26010       -0.56075
N        -11.76885       24.38605       -0.62092
C        -16.34414       22.64153       -0.31182
C        -16.82897       21.39463       -0.23753
O        -16.04680       20.25982       -0.22297
H         -0.86893       -0.77866       -1.63472
H         -1.00679       -2.62039        0.03325
H         -3.82306       -0.01641        2.23268
H         -3.82635        2.47531       -1.65398
H         -5.45329        5.24497        2.81266
H         -5.06534        4.99551       -2.10858
H         -6.86181        7.64862        2.35740
H        -11.95041       12.70321       -0.73801
H        -10.19888       17.61820        0.96903
H        -13.71211       14.86645       -1.15552
H        -12.02504       19.75210        0.71548
H        -12.98407       21.68834       -0.39557
H        -17.03655       23.47747       -0.31845
H        -17.87903       21.14138       -0.18196
