73

C         -1.11550      -10.55716        5.93734
N         -0.38757      -10.27275        4.82994
N         -0.97316       -9.78240        3.60976
C         -2.30808       -9.55508        3.45125
C         -3.09525       -9.84435        4.58028
C         -2.49228      -10.33965        5.81273
N         -3.46490      -10.52626        6.71455
O         -4.64070      -10.16375        6.08338
N         -4.41923       -9.74938        4.78403
C         -2.82952       -9.11531        2.16529
C         -4.08614       -9.32632        1.58774
C         -4.13354       -8.82575        0.26853
C         -2.94921       -8.22121       -0.08577
S         -1.78469       -8.21909        1.09534
C         -3.00610       -7.87763       -1.45139
C         -4.20621       -8.29757       -1.96949
C         -5.03488       -8.82532       -0.88499
C         -6.33494       -9.17338       -0.92911
C         -7.09683       -9.05904       -2.12292
N         -7.71727       -8.96580       -3.09883
C         -7.02195       -9.62953        0.22927
N         -7.57917      -10.00330        1.17604
C         -4.21672       -8.20950       -3.38041
C         -2.99953       -7.72113       -3.88306
S         -1.99390       -7.17578       -2.55303
C         -2.50496       -7.65380       -5.29079
C         -1.13897       -7.74308       -5.67367
C         -0.70764       -7.73956       -7.04719
N          0.61794       -7.77956       -7.32128
C          1.52766       -7.79471       -6.31893
C          1.12134       -7.85217       -5.01964
N         -0.19787       -7.84562       -4.70834
C          2.02573       -7.92415       -3.91827
N          2.78145       -7.98892       -3.03398
C          2.90280       -7.72944       -6.70955
N          4.02389       -7.66530       -7.00340
C         -1.61446       -7.70034       -8.13150
C         -2.99498       -7.59971       -7.79954
C         -3.44583       -7.56333       -6.35888
N         -4.78019       -7.43716       -6.25203
S         -5.41243       -7.39925       -7.77525
N         -4.02448       -7.51406       -8.66140
C         -1.22048       -7.70557       -9.56407
C         -1.84113       -8.29191      -10.68027
C         -1.19403       -7.92980      -11.88811
C         -0.12074       -7.10954      -11.64256
S          0.17300       -6.77442      -10.05411
C          0.37434       -6.61304      -12.85979
C         -0.39639       -7.09966      -13.88738
C         -1.37131       -8.05017      -13.34019
C         -2.18386       -8.88471      -14.01758
C         -2.19380       -8.91765      -15.44027
N         -2.18962       -8.94178      -16.60078
C         -3.01670       -9.81897      -13.34420
N         -3.68534      -10.58913      -12.79040
C         -0.07718       -6.45764      -15.10553
C          0.95574       -5.52871      -14.93127
S          1.53154       -5.51149      -13.29073
C          1.54612       -4.58681      -15.86533
N          2.85360       -4.22509      -15.73993
N          3.49707       -3.26692      -16.59565
C          2.85457       -2.62803      -17.60402
C          1.50441       -2.96473      -17.75561
C          0.84379       -3.93825      -16.89490
N         -0.43981       -4.02240      -17.28040
O         -0.57811       -3.15155      -18.34562
N          0.60861       -2.50495      -18.63859
H         -0.60810      -10.92406        6.81605
H         -4.87567       -9.87717        2.08611
H         -5.01537       -8.57206       -4.01601
H         -2.75080       -8.87389      -10.60649
H         -0.58336       -6.60147      -16.05373
H          3.40338       -1.91989      -18.20466
