53

N          2.83687        9.97942        0.97543
C          3.78973        9.40360        1.31193
C          4.96008        8.70128        1.71213
S          6.22844        8.28915        0.63691
C          7.14089        7.55174        1.88818
C          8.42597        6.98265        1.66708
C          9.51973        6.55165        1.42441
C         10.82502        6.09961        1.07277
C         11.83246        5.85792        1.97719
C         13.02826        5.46209        1.30491
S         14.63073        5.01960        1.80206
C         15.09794        4.69127        0.17130
C         16.38868        4.03846       -0.12786
C         16.52180        3.18439       -1.24603
C         17.60705        2.30093       -1.44059
C         18.68459        2.16946       -0.53619
C         19.53572        0.96505       -0.48949
C         20.20357        0.42049        0.59716
C         20.40173       -0.98026        0.41580
S         20.87071       -2.30087        1.44728
C         20.28618       -3.40932        0.27945
C         20.10425       -4.78968        0.58432
C         19.87758       -5.91638        0.92908
C         19.57076       -7.21680        1.42285
S         18.10769       -8.04523        1.08319
C         18.56013       -9.38564        2.05497
C         17.74224      -10.53577        2.24896
N         17.07137      -11.47052        2.40380
C         19.79862       -9.19164        2.61109
F         20.38667      -10.05342        3.39692
C         20.37411       -7.95952        2.25273
F         21.54286       -7.56207        2.67823
C         20.00111       -2.82939       -0.93678
C         20.05227       -1.40630       -0.83077
S         19.69749       -0.06087       -1.87495
C         18.70874        3.13759        0.51434
N         19.67444        3.30729        1.43659
S         19.19578        4.52750        2.43970
N         17.73505        4.90914        1.77605
C         17.53556        4.09523        0.72350
C         14.07552        4.98269       -0.71849
C         12.88786        5.40484       -0.04933
S         11.27879        5.83998       -0.55669
C          6.47475        7.61292        3.08630
F          6.94043        7.12777        4.20569
C          5.23370        8.26986        2.98573
F          4.43462        8.45370        4.00193
H         11.73692        5.96066        3.05129
H         15.70914        3.11743       -1.97059
H         17.52841        1.62472       -2.29274
H         20.35725        0.91079        1.55001
H         19.68255       -3.36817       -1.81999
H         14.13600        4.85473       -1.79171
