111

C         -0.85738        9.59508        3.02925
C         -1.43784       10.64240        3.80163
N         -1.89661       11.50416        4.43193
C         -1.54656        8.69807        2.25579
F         -2.84116        8.68232        2.13681
C         -0.69755        7.77582        1.59729
F         -1.13816        6.83375        0.81148
C          0.62970        7.98644        1.87206
S          0.83121        9.30841        2.95614
C          1.74850        7.26192        1.37068
C          2.83539        6.83700        1.08001
C          4.23542        6.61799        0.95663
C          4.89903        5.67315        0.21587
C          6.35006        5.73879        0.35317
C          7.39954        4.93778       -0.17861
C          7.05333        3.81444       -1.08853
C          6.03807        2.87337       -0.99698
C          6.00835        1.95599       -2.09156
C          7.04024        2.17150       -2.97608
S          7.91077        3.58375       -2.57348
C          7.42332        1.36833       -4.17431
C          8.75041        5.20596        0.16370
C          9.10157        6.34527        0.89674
C          8.05950        7.13801        1.43064
C          6.71036        6.81525        1.17839
S          5.30905        7.60283        1.80804
C          8.37022        8.29613        2.30733
C          7.84035        9.57959        2.30103
C          8.31391       10.39512        3.37084
C          9.26090        9.74821        4.13079
S          9.44585        8.12170        3.64495
C         10.05144       10.28207        5.27535
C         10.53897        6.50710        0.92279
C         11.25875        5.45723        0.38577
S         10.16975        4.24719       -0.12199
C         12.72935        5.28012        0.28249
C         13.40271        4.67368       -0.80616
C         14.84120        4.55378       -0.86704
N         15.40906        3.93740       -1.93259
C         14.62020        3.44809       -2.92401
C         13.26177        3.59291       -2.88324
N         12.66274        4.21004       -1.83531
C         12.38862        3.11037       -3.91437
N         11.70796        2.71210       -4.76075
C         15.29901        2.77365       -3.99173
N         15.82326        2.21607       -4.86234
C         15.69404        5.08612        0.12891
C         15.04889        5.68239        1.26012
C         13.54860        5.78092        1.33369
N         13.12909        6.37904        2.46393
S         14.45855        6.80333        3.33681
N         15.63532        6.20460        2.35344
C         17.17598        5.10884        0.00635
C         18.06150        4.23269       -0.59641
C         19.47239        4.61470       -0.53800
C         20.67014        3.97965       -0.99686
C         20.63237        2.60231       -1.58187
C         21.38836        2.03877       -2.60507
C         21.14947        0.64689       -2.81004
C         20.14597        0.17499       -1.99980
S         19.60995        1.37580       -0.91580
C         19.56091       -1.19435       -1.95208
C         21.92075        4.65234       -0.87970
C         22.01503        5.92505       -0.29058
C         20.82371        6.55039        0.15493
C         19.58461        5.88284        0.04531
S         18.04054        6.47053        0.52571
C         20.85497        7.95377        0.67002
C         20.16416        8.54690        1.72124
C         20.40030        9.94905        1.84986
C         21.34714       10.39242        0.95777
S         21.75602        9.17478       -0.16179
C         21.98068       11.73783        0.86847
C         23.39105        6.36804       -0.24811
C         24.26821        5.54542       -0.90013
S         23.51072        4.12314       -1.38257
C         25.64006        5.86909       -1.11200
C         26.76391        6.26609       -1.25910
C         28.05923        6.84496       -1.38822
C         28.79803        7.36710       -0.35496
C         30.01942        7.92018       -0.77950
C         30.20884        7.81692       -2.13428
S         28.88065        7.02750       -2.88170
C         31.34499        8.29963       -2.84453
N         32.26707        8.69422       -3.42761
F         30.87327        8.48135        0.03399
F         28.40497        7.36953        0.89086
H          4.37368        4.94416       -0.38771
H          5.33194        2.83096       -0.17766
H          5.28601        1.15543       -2.20048
H          6.80921        0.46400       -4.25169
H          8.46938        1.04755       -4.11153
H          7.28930        1.94578       -5.09406
H          7.10531        9.92295        1.58278
H          7.98712       11.41196        3.55587
H          9.98570       11.37480        5.31863
H         11.11105       10.02170        5.17774
H          9.67770        9.88167        6.22257
H         11.02188        7.37525        1.35420
H         17.71450        3.33375       -1.08768
H         22.13024        2.57590       -3.18103
H         21.68280        0.03394       -3.52779
H         20.00090       -1.83678       -2.72261
H         18.47909       -1.16623       -2.12225
H         19.75086       -1.65826       -0.97929
H         19.48092        8.01756        2.37411
H         19.92691       10.58386        2.58989
H         21.39761       12.48343        1.41872
H         22.06640       12.07550       -0.16882
H         22.98478       11.70899        1.30715
H         23.72243        7.29600        0.19935
