86

C          2.27103        2.72126       -2.00075
O          2.03482        1.91900       -0.83723
C          2.94359        2.07451        0.18301
C          4.29253        2.35257       -0.13213
C          5.26475        2.68647        0.82889
C          6.63703        3.10292        0.37465
S          6.77788        3.84139       -1.20016
C          8.46740        3.92388       -1.13405
C          8.94062        3.52845        0.09179
N         10.34201        3.61460        0.40723
O         11.12594        3.07762       -0.38448
O         10.64278        4.22315        1.44144
C          7.90572        3.01821        0.96599
C          8.23524        2.45702        2.31358
C          4.85253        2.58358        2.16289
O          5.65851        3.10761        3.13635
C          5.68641        2.53403        4.43928
C          3.56288        2.09370        2.46517
C          2.53805        1.90593        1.52421
C          1.12983        1.43408        1.96444
C          0.49914        1.70123        3.16666
C         -0.82177        1.04866        3.54459
C         -0.81616       -0.24591        4.09117
C         -2.00964       -0.88876        4.49648
O         -2.03054       -2.20116        4.88947
C         -1.01376       -3.04110        4.35186
C         -3.23324       -0.19098        4.50696
C         -4.55084       -0.77584        4.94219
S         -5.97807       -0.23402        4.09713
C         -7.02992       -1.16183        5.04542
C         -6.36600       -1.97123        5.94129
C         -7.07754       -2.95201        6.82142
C         -4.92791       -1.72363        5.89168
N         -4.01484       -2.37403        6.78636
O         -3.36460       -1.66420        7.55353
O         -4.02275       -3.62405        6.77185
C         -3.20311        1.12948        4.00310
C         -2.04854        1.72444        3.46680
O         -2.04813        2.93647        2.83379
C         -3.24565        3.70430        2.84824
C          1.07243        2.63094        4.19500
C          0.84443        4.01542        4.14232
F          0.06640        4.54025        3.18933
C          1.43271        4.87561        5.06902
F          1.19726        6.19348        4.99886
C          2.27700        4.37953        6.05000
F          2.91585        5.21596        6.88017
C          2.48457        3.01440        6.14588
F          3.36114        2.53121        7.03848
C          1.85281        2.14434        5.25560
F          2.12561        0.83208        5.33760
C          0.35719        0.59550        0.99273
C         -0.54214        1.18798        0.09128
F         -0.77528        2.50893        0.13820
C         -1.13394        0.43817       -0.91994
F         -1.93794        1.03319       -1.81279
C         -0.86018       -0.91702       -1.02946
F         -1.41786       -1.63612       -2.01385
C          0.00356       -1.52512       -0.12906
F          0.26757       -2.83513       -0.23562
C          0.61377       -0.77431        0.87148
F          1.46596       -1.37752        1.71501
H          2.97524        2.21632       -2.67144
H          2.63142        3.72606       -1.74804
H          1.32562        2.83451       -2.53881
H          4.58624        2.31439       -1.17730
H          9.03479        4.29724       -1.97696
H          9.26814        2.10226        2.37118
H          7.60972        1.59161        2.54166
H          8.11987        3.23284        3.07768
H          5.93855        3.33271        5.14344
H          6.47341        1.77775        4.48989
H          4.75895        2.08215        4.77789
H          3.35935        1.83743        3.48239
H          0.13859       -0.75419        4.20115
H         -0.08153       -2.92338        4.91263
H         -0.85756       -2.85312        3.28377
H         -1.34615       -4.07710        4.46091
H         -8.09860       -1.09692        4.88332
H         -8.09169       -2.60677        7.04942
H         -6.56055       -3.10324        7.77182
H         -7.16053       -3.91651        6.30767
H         -4.12427        1.70067        4.01511
H         -3.11071        4.55599        2.17582
H         -3.42752        4.08890        3.85681
H         -4.11111        3.14335        2.47804
