79

C          2.50155        0.24851       -3.05139
C          3.59872       -0.35778       -3.62873
N          4.34961        0.31272       -4.68040
O          3.93247        1.42221       -5.04716
O          5.35223       -0.24820       -5.12927
C          3.85922       -1.67029       -3.05375
C          4.95426       -2.58863       -3.51883
C          2.97790       -1.94099       -2.00065
S          1.80862       -0.68993       -1.81911
C          2.95005       -3.05810       -1.06907
C          1.83417       -3.62586       -0.43872
C          2.21735       -4.59850        0.51293
C          3.57951       -4.77506        0.51824
S          4.42533       -3.78571       -0.50384
C          3.91649       -5.71859        1.50458
C          2.77941       -6.10895        2.16729
C          1.62073       -5.46124        1.53946
C          0.31570       -5.63276        1.82222
C         -0.70303       -4.94928        1.09594
N         -1.52974       -4.39138        0.49855
C         -0.11529       -6.51757        2.84829
N         -0.46637       -7.23531        3.69010
C          3.09467       -6.95602        3.25836
C          4.47646       -7.19555        3.35702
S          5.30773       -6.44996        2.00818
C          5.25936       -7.97324        4.35920
C          6.59564       -7.68005        4.74448
C          7.34524       -8.50566        5.65648
N          8.64996       -8.21597        5.88305
C          9.21730       -7.12289        5.31896
C          8.48998       -6.30048        4.51098
N          7.19055       -6.57642        4.23406
C          9.03199       -5.13004        3.88824
N          9.48950       -4.18416        3.39198
C         10.59771       -6.89342        5.63325
N         11.71598       -6.68211        5.86950
C          6.77097       -9.60875        6.33193
C          5.41788       -9.91678        6.00497
C          4.65807       -9.09990        4.98947
N          3.41611       -9.57322        4.78393
S          3.19305      -10.86331        5.78864
N          4.66704      -10.90237        6.52822
C          7.45481      -10.41694        7.37713
C          7.30836      -11.77223        7.70848
C          8.05378      -12.11648        8.85960
C          8.79999      -11.05367        9.30767
S          8.56377       -9.63922        8.48511
C          9.53000      -11.44584       10.44630
C          9.22576      -12.75339       10.74215
C          8.26297      -13.25742        9.75558
C          7.66678      -14.46429        9.71463
C          6.71031      -14.79638        8.71230
N          5.93757      -15.06784        7.89549
C          7.94147      -15.46465       10.68679
N          8.16541      -16.27538       11.48712
C          9.89389      -13.17710       11.91311
C         10.70387      -12.16318       12.44453
S         10.58822      -10.71323       11.49069
C         11.49657      -12.21371       13.66447
C         12.67288      -11.56435       14.02872
N         13.39518      -10.68078       13.15373
O         13.86721      -11.17657       12.12373
O         13.52148       -9.51047       13.53442
C         13.11175      -11.87236       15.37528
C         14.33491      -11.33693       16.05178
C         12.23378      -12.74646       15.98208
S         10.93866      -13.19209       14.97508
H          2.07380        1.21407       -3.29161
H          5.18405       -2.45900       -4.57760
H          4.66373       -3.63849       -3.42477
H          5.86786       -2.40736       -2.94315
H          0.82078       -3.29960       -0.64192
H          2.37743       -7.35525        3.96585
H          6.65360      -12.43993        7.16097
H          9.79897      -14.15153       12.37780
H         15.09196      -11.00666       15.33484
H         14.79539      -12.10798       16.67979
H         14.06824      -10.48994       16.69207
H         12.29506      -13.15138       16.98427
