95

C         -7.88901       -6.49167        9.56753
C         -6.78276       -5.64312        9.30677
C         -5.67630       -5.75488       10.20907
C         -5.75010       -6.60814       11.32254
C         -6.89486       -7.36944       11.57355
C         -7.95798       -7.32052       10.68903
C         -4.60853       -6.72488       12.26481
O         -4.70925       -7.46491       13.24052
N         -3.46924       -5.98706       11.97004
C         -2.31054       -6.12098       12.83359
C         -3.32428       -5.17593       10.85269
O         -2.27779       -4.60179       10.56066
C         -4.50832       -5.02117        9.97803
C         -4.42279       -4.13223        8.91313
C         -5.51016       -3.96649        8.06698
C         -6.69911       -4.71726        8.21143
C         -7.78751       -4.49226        7.20807
C         -9.18617       -4.57441        7.30114
C         -9.81949       -4.30888        6.06208
C         -8.90573       -3.89458        5.12837
S         -7.32491       -4.00913        5.58323
C         -9.58087       -3.50243        3.96222
C        -10.92849       -3.71541        4.12190
C        -11.15687       -4.28239        5.45561
C        -12.30770       -4.76197        5.96851
C        -13.52180       -4.75305        5.22634
N        -14.50532       -4.77344        4.61825
C        -12.34582       -5.36859        7.25380
N        -12.35514       -5.87314        8.29971
C        -11.64478       -3.33477        2.96088
C        -10.78588       -2.83578        1.97500
S         -9.13113       -2.81573        2.53029
C        -11.10996       -2.35741        0.64580
C        -12.27386       -1.79204        0.16632
C        -12.17153       -1.38928       -1.22460
N        -13.17491       -0.76866       -1.90735
C        -14.29553       -0.61847       -1.13845
C        -15.44629        0.02132       -1.81841
O        -15.35500        0.55405       -2.91683
C        -16.75034       -0.00235       -1.12999
C        -16.86930       -0.43600        0.12532
C        -15.70263       -0.90334        0.89938
O        -15.84075       -1.18295        2.08340
C        -14.40754       -1.03540        0.19123
N        -13.39893       -1.61554        0.91675
C        -10.95487       -1.70600       -1.78882
S         -9.96115       -2.48963       -0.63098
C        -10.49315       -1.49539       -3.14360
C        -11.25466       -1.46930       -4.31612
C        -10.44171       -1.24255       -5.44931
C         -9.12105       -1.11148       -5.09286
S         -8.80471       -1.22474       -3.47446
C         -8.34848       -0.90621       -6.24752
C         -9.17232       -0.89988       -7.34705
C        -10.55712       -1.10512       -6.90403
C        -11.67399       -1.14821       -7.65624
C        -11.62134       -0.99029       -9.06853
N        -11.56418       -0.86460      -10.22031
C        -12.95939       -1.36148       -7.08325
N        -14.00889       -1.54901       -6.62765
C         -8.42928       -0.70657       -8.53525
C         -7.06228       -0.56086       -8.26637
S         -6.73836       -0.70228       -6.56025
C         -5.93509       -0.34536       -9.19519
C         -5.97678       -0.86385      -10.49962
C         -4.90743       -0.67692      -11.38348
C         -3.78614        0.03486      -10.96692
C         -3.72016        0.56786       -9.67818
C         -4.79247        0.37864       -8.80261
C         -2.52815        1.31479       -9.27448
C         -1.50487        1.48716      -10.12930
C         -1.57185        0.91434      -11.50466
O         -0.65936        1.04458      -12.31420
N         -2.70997        0.22428      -11.83918
C         -0.34713        2.21364       -9.74373
N          0.57084        2.81876       -9.36754
H         -8.73441       -6.54423        8.89028
H         -6.95176       -8.01591       12.44743
H         -8.84254       -7.92952       10.86310
H         -2.55698       -6.59674       13.78585
H         -1.88084       -5.13329       13.03028
H         -1.56103       -6.72656       12.31340
H         -3.51473       -3.55808        8.73576
H         -5.39472       -3.22957        7.27398
H         -9.70657       -4.81122        8.21968
H        -12.71649       -3.41585        2.81677
H        -17.60073        0.36181       -1.69674
H        -17.82462       -0.45032        0.63925
H        -12.32888       -1.61507       -4.31842
H         -8.83345       -0.65978       -9.53927
H         -6.83692       -1.43504      -10.84333
H         -4.96380       -1.09348      -12.38556
H         -4.73292        0.80605       -7.80388
H         -2.49728        1.72409       -8.26780
H         -2.73638       -0.15536      -12.77632
