95

C         -4.86305        4.53402        1.19460
C         -3.58313        3.91236        1.26622
C         -2.49274        4.81814        1.48535
C         -2.72336        6.20317        1.61682
C         -4.01069        6.74100        1.55462
C         -5.08251        5.90309        1.35060
C         -1.60407        7.15060        1.82727
O         -1.84373        8.35235        1.91212
N         -0.33210        6.60973        1.91583
C          0.78708        7.50715        2.14187
C         -0.04258        5.25317        1.79549
O          1.09753        4.80051        1.86979
C         -1.18602        4.33144        1.56514
C         -0.92761        2.96682        1.43199
C         -1.97188        2.06143        1.21337
C         -3.31544        2.48595        1.12728
C         -4.36999        1.41934        0.90989
C         -4.30442        0.16953        0.24973
C         -5.55265       -0.51989        0.26608
C         -6.49907        0.21852        0.92508
S         -5.94238        1.58760        1.65130
C         -7.73697       -0.44193        0.87397
C         -7.59530       -1.64111        0.22604
C         -6.18873       -1.76725       -0.20280
C         -5.60994       -2.78550       -0.87101
C         -6.34656       -3.93812       -1.25284
N         -6.95134       -4.88530       -1.55498
C         -4.22578       -2.75517       -1.21813
N         -3.10594       -2.71855       -1.49106
C         -8.83607       -2.33644        0.18129
C         -9.87021       -1.61085        0.80303
S         -9.27413       -0.04706        1.31530
C        -11.30805       -1.94537        1.02793
C        -12.09389       -2.72663        0.14853
C        -13.48102       -3.05946        0.42147
N        -14.15803       -3.84127       -0.45314
C        -13.53931       -4.28063       -1.58248
C        -12.23486       -3.95238       -1.84835
N        -11.51628       -3.17571       -0.99043
C        -11.53698       -4.40853       -3.01362
N        -10.98400       -4.79288       -3.96021
C        -14.33437       -5.07747       -2.46602
N        -14.96273       -5.72592       -3.20327
C        -14.16566       -2.60036        1.57321
C        -13.41330       -1.77582        2.46473
C        -11.96720       -1.47141        2.20521
N        -11.42516       -0.74831        3.20204
S        -12.59656       -0.39697        4.29524
N        -13.85633       -1.17322        3.58355
C        -15.59159       -2.91566        1.87904
C        -16.68403       -3.12819        1.02017
C        -17.88625       -3.36461        1.73532
C        -17.66626       -3.32312        3.08876
S        -16.09114       -3.13755        3.54273
C        -18.88276       -3.51202        3.76690
C        -19.88711       -3.70538        2.85051
C        -19.31074       -3.64229        1.50008
C        -19.93999       -3.82737        0.32284
C        -21.32810       -4.12775        0.26239
N        -22.46304       -4.37598        0.22901
C        -19.24493       -3.74091       -0.91265
N        -18.66995       -3.65583       -1.91884
C        -21.13193       -3.90515        3.49632
C        -21.00562       -3.83800        4.89058
S        -19.35289       -3.52324        5.35150
C        -22.03413       -3.97277        5.94514
C        -23.37132       -3.61863        5.69792
C        -24.34480       -3.72790        6.69976
C        -23.98871       -4.20516        7.95756
C        -22.67057       -4.57489        8.22968
C        -21.70457       -4.45682        7.22643
C        -22.33044       -5.08059        9.56098
C        -23.27204       -5.18926       10.51411
C        -24.68076       -4.79118       10.22621
O        -25.56969       -4.87345       11.06763
N        -24.95135       -4.32213        8.96504
C        -22.94930       -5.68233       11.80748
N        -22.62204       -6.09212       12.84201
H         -5.76674        3.97134        1.00681
H         -4.17792        7.81083        1.65963
H         -6.09332        6.30084        1.30257
H          0.47656        8.55195        2.22676
H          1.49271        7.41221        1.31016
H          1.29644        7.21284        3.06472
H          0.09756        2.60076        1.50189
H         -1.70312        1.01009        1.13010
H         -3.40727       -0.20052       -0.22941
H         -8.99387       -3.31140       -0.26432
H        -16.59334       -3.09384       -0.05885
H        -22.07998       -4.09756        3.00836
H        -23.67701       -3.23867        4.72510
H        -25.36964       -3.43713        6.48459
H        -20.68182       -4.75281        7.45159
H        -21.29925       -5.36577        9.75107
H        -25.91249       -4.05818        8.78997
