85

C          8.22475      -10.48451       -0.56386
C          7.94856      -11.75198       -0.10853
O          6.64839      -11.84883        0.25466
C          6.08848      -10.63503        0.03126
C          7.01062       -9.73771       -0.48055
C          6.67180       -8.34518       -0.77477
O          5.53201       -7.93183       -0.57222
C          7.74706       -7.49488       -1.26661
C          8.80498       -7.75785       -2.11529
C          9.62621       -6.61589       -2.33593
C          9.14826       -5.48613       -1.70023
S          7.74576       -5.84501       -0.78998
C          9.67419       -4.14566       -1.78210
C          9.56825       -3.10702       -0.85139
C         10.18347       -1.92973       -1.33030
C         10.72790       -2.13455       -2.57449
S         10.53396       -3.64928       -3.20750
C         11.29698       -0.93668       -3.02639
C         11.09413        0.04812       -2.09314
C         10.42080       -0.53804       -0.93062
C         10.13463        0.04854        0.24775
C          9.51152       -0.67134        1.30672
N          9.01461       -1.26497        2.16544
C         10.46839        1.40600        0.50539
N         10.74474        2.51190        0.72573
C         11.57187        1.29398       -2.56210
C         12.13238        1.18267       -3.84412
S         12.15855       -0.48909       -4.35521
C         12.73841        2.19911       -4.73625
C         12.71687        2.13043       -6.15436
C         13.47685        3.03062       -6.98439
N         13.50563        2.83515       -8.32393
C         12.76466        1.84490       -8.86112
C         11.99220        1.03096       -8.07950
N         11.95800        1.17563       -6.74085
F         11.26025        0.05136       -8.62685
F         12.79146        1.68467      -10.19087
C         14.19925        4.11835       -6.44145
C         14.16259        4.27981       -5.02403
C         13.43674        3.29377       -4.15685
N         13.55641        3.57888       -2.84767
S         14.43050        4.97140       -2.71237
N         14.72617        5.26984       -4.30711
C         14.95653        5.11374       -7.23260
C         16.13228        5.79589       -6.89657
C         16.45892        6.76974       -7.85970
C         15.58777        6.73856       -8.92079
S         14.34706        5.65643       -8.77511
C         15.95264        7.73573       -9.84242
C         17.03413        8.42790       -9.34659
C         17.42454        7.84788       -8.05994
C         18.42530        8.22282       -7.24163
C         18.71146        7.52495       -6.03533
N         18.95629        6.94730       -5.05885
C         19.24349        9.35107       -7.53421
N         19.89042       10.28791       -7.75169
C         17.41866        9.47136      -10.21694
C         16.63110        9.47192      -11.36484
S         15.39302        8.25892      -11.31127
C         16.77852       10.40938      -12.52031
C         15.74296       10.70499      -13.38314
O         16.13168       11.61200      -14.30859
C         17.43679       11.87252      -14.06917
C         17.90638       11.16740      -12.97137
C         19.29745       11.15729      -12.51539
O         19.79950       10.13819      -12.04897
C         20.01858       12.41600      -12.69333
C         19.54800       13.71902      -12.69057
C         20.56356       14.67310      -12.98233
C         21.79403       14.07922      -13.14008
S         21.71765       12.38226      -12.94121
H          9.19931      -10.16067       -0.89595
H          8.54225      -12.64639        0.01989
H          5.04146      -10.54898        0.29257
H          8.99199       -8.71476       -2.58539
H         10.50863       -6.62648       -2.96613
H          9.06268       -3.22322        0.09958
H         11.50823        2.23346       -2.02549
H         16.66582        5.62069       -5.97003
H         18.20593       10.19056      -10.03347
H         14.70877       10.39488      -13.44945
H         17.89736       12.55788      -14.76884
H         18.51257       13.98558      -12.51198
H         20.39841       15.74077      -13.06407
H         22.73807       14.56142      -13.35543
