137

C         -4.24542        2.52594        0.02989
C         -5.63197        2.71028       -0.03466
C         -6.46085        1.76531       -0.65629
C         -5.91619        0.63386       -1.26482
C         -4.53605        0.47732       -1.24683
C         -3.69710        1.39952       -0.56371
C         -2.30606        0.81722       -0.52426
C         -1.14283        1.48075       -0.40546
C         -1.08539        2.89310       -0.26421
N         -1.04622        4.04957       -0.15826
C          0.10576        0.80862       -0.54222
N          1.11735        0.24459       -0.65422
C         -2.49097       -0.61855       -0.85711
C         -3.68515       -0.64121       -1.73679
C         -3.83120       -1.34471       -2.87147
C         -2.84592       -2.27807       -3.31324
N         -2.03925       -3.03123       -3.67392
C         -4.91935       -1.11511       -3.75155
N         -5.80690       -0.89671       -4.46956
C         -1.94540       -1.64495       -0.17116
C         -2.47039       -2.98051       -0.13547
C         -1.81405       -4.16965        0.10718
C         -2.68152       -5.33339        0.22096
C         -2.44419       -6.67244        0.61671
C         -1.13399       -7.05530        1.22848
C         -0.42535       -8.24864        1.15078
C          0.81762       -8.23692        1.84474
C          1.09276       -6.99862        2.37132
S         -0.27371       -5.98302        2.28407
C          2.37137       -6.53346        2.97718
C         -3.45730       -7.64781        0.43027
C         -4.67566       -7.35214       -0.20108
C         -4.92589       -5.99739       -0.55187
C         -3.96492       -5.00972       -0.22917
S         -4.13831       -3.30348       -0.20291
C         -6.15004       -5.59389       -1.31708
C         -6.93166       -4.44419       -1.24191
C         -7.90430       -4.32726       -2.28024
C         -7.90712       -5.42493       -3.10532
S         -6.70746       -6.54637       -2.65074
C         -8.75075       -5.67196       -4.30920
C         -5.46195       -8.56594       -0.36096
C         -4.90040       -9.70936        0.17103
S         -3.42748       -9.30011        0.90347
C         -5.37974      -11.11433        0.17388
C         -5.14431      -12.04110        1.22052
C         -5.58558      -13.41463        1.16053
N         -5.25620      -14.25941        2.16560
C         -4.57605      -13.78661        3.22912
C         -4.19646      -12.47551        3.30533
N         -4.48386      -11.60831        2.31796
F         -3.51249      -12.02043        4.36399
F         -4.28980      -14.63426        4.22595
C         -6.36355      -13.91492        0.08760
C         -6.62116      -13.01612       -0.98912
C         -6.11075      -11.59713       -0.94987
N         -6.43014      -10.91056       -2.06223
S         -7.30822      -11.90862       -3.03741
N         -7.32208      -13.27229       -2.10948
C         -6.96126      -15.27275        0.04928
C         -7.19533      -16.12379       -1.01094
C         -7.83062      -17.38573       -0.66774
C         -8.23122      -18.48886       -1.47191
C         -7.82089      -18.56349       -2.91105
C         -8.48893      -19.04636       -4.03099
C         -7.76922      -18.89882       -5.25269
C         -6.58647      -18.22706       -5.06537
S         -6.21719      -18.10627       -3.40374
C         -5.67347      -17.67498       -6.10557
C         -9.05634      -19.49186       -0.90845
C         -9.29456      -19.57488        0.46913
C         -8.79135      -18.53189        1.28674
C         -8.12713      -17.42511        0.70198
S         -7.61359      -15.96337        1.46295
C         -9.03904      -18.59483        2.75231
C        -10.20177      -18.90615        3.44445
C        -10.03275      -18.92723        4.86442
C         -8.74440      -18.61631        5.23857
S         -7.75259      -18.34750        3.87591
C         -8.16893      -18.54754        6.61462
C        -10.01028      -20.80453        0.78673
C        -10.32654      -21.58508       -0.30776
S         -9.98479      -20.69394       -1.71386
C        -10.98704      -22.85790       -0.36550
C        -10.76233      -23.82613       -1.28355
C        -11.72640      -24.93121       -1.60110
C        -12.44364      -25.67640       -0.72683
C        -12.35246      -25.48360        0.68182
N        -12.28923      -25.30449        1.82623
C        -13.30843      -26.73170       -1.13263
N        -14.02187      -27.58878       -1.45335
C        -11.66054      -25.08730       -3.10077
C        -10.57423      -24.31083       -3.59339
C        -10.38340      -24.13036       -4.95912
C        -11.21771      -24.80526       -5.84865
C        -12.23856      -25.63348       -5.37343
C        -12.47892      -25.76194       -4.00020
C         -9.81799      -23.78034       -2.43090
C         -8.48004      -23.54200       -2.38391
C         -7.66638      -23.52694       -3.54973
N         -7.01411      -23.49703       -4.51081
C         -7.79723      -23.35428       -1.14939
N         -7.24041      -23.23418       -0.13970
H         -3.64927        3.24940        0.57531
H         -6.08003        3.58541        0.43396
H         -7.54019        1.90811       -0.64832
H         -6.57948       -0.11053       -1.69741
H         -1.12238       -1.46659        0.51778
H         -0.73921       -4.20391        0.23506
H         -0.75775       -9.11855        0.60219
H          1.50188       -9.07573        1.88407
H          2.62691       -7.13932        3.85135
H          2.33591       -5.48279        3.28063
H          3.18158       -6.63634        2.24487
H         -6.79345       -3.65911       -0.51137
H         -8.55265       -3.46946       -2.42036
H         -9.67982       -5.09312       -4.26483
H         -9.02266       -6.72800       -4.40868
H         -8.20557       -5.36721       -5.20828
H         -6.42269       -8.59374       -0.85564
H         -6.94831      -15.84507       -2.02749
H         -9.48468      -19.46289       -4.02082
H         -8.14730      -19.19145       -6.22502
H         -4.88141      -18.38463       -6.35790
H         -5.21804      -16.73391       -5.77842
H         -6.23714      -17.45335       -7.02026
H        -11.14220      -19.13900        2.96031
H        -10.81683      -19.17472        5.57135
H         -8.65232      -17.76055        7.20376
H         -7.09287      -18.34355        6.60452
H         -8.31992      -19.50174        7.13031
H        -10.24717      -21.11537        1.79788
H        -11.78730      -22.96050        0.36309
H         -9.61977      -23.47201       -5.36067
H        -11.07318      -24.68627       -6.92117
H        -12.86940      -26.16643       -6.08293
H        -13.31638      -26.37876       -3.69569
