90

C          7.58762        2.86643        5.82836
O          6.44198        3.69722        5.58110
C          5.34735        2.92011        5.22414
C          4.29133        2.73873        6.21076
O          4.25690        3.49022        7.36992
C          4.89578        4.75766        7.44263
C          3.29447        1.68922        6.15112
C          2.04004        1.49949        7.03899
C          1.82044        2.32352        8.17331
C          0.70216        2.20822        9.00165
C         -0.24316        1.23656        8.74487
C         -0.11923        0.40969        7.65270
N         -1.09197       -0.51040        7.50209
C         -0.99704       -1.36036        6.45714
C         -2.04164       -2.42849        6.35270
C          0.02898       -1.22535        5.54055
C          0.28036       -2.20144        4.43308
N          0.95445       -0.23876        5.66820
C          0.98157        0.55404        6.76031
C          3.67727        0.74468        5.14014
N          3.40811       -0.57371        5.12638
S          3.85265       -1.18219        3.66934
N          4.59955        0.13584        3.02911
C          4.61550        1.09208        3.97934
C          5.40803        2.27209        3.96772
C          6.38521        2.57781        2.88294
C          7.02432        1.53880        2.23008
S          8.29696        2.02802        1.22834
C          7.86831        3.68349        1.36405
C          8.63529        4.63670        0.52336
C          8.52622        4.83683       -0.88707
O          7.48533        4.22989       -1.56678
C          7.68014        2.84613       -1.84987
C          9.32968        5.79777       -1.61351
O          9.51717        5.79234       -2.98264
C          8.62935        5.15475       -3.87394
C         10.17350        6.77948       -0.98653
C         10.85202        7.92919       -1.70502
C         12.15080        8.33369       -1.29984
C         12.81727        9.40537       -1.88470
C         12.23252       10.06331       -2.94851
C         10.99700        9.68591       -3.42719
N         10.57572       10.33419       -4.52854
C          9.38486        9.96370       -5.04917
C          9.01940       10.57643       -6.36859
C          8.59793        9.01288       -4.41457
C          7.29638        8.54642       -5.00394
N          9.00681        8.39163       -3.27239
C         10.25409        8.64811       -2.78677
C         10.36688        6.53631        0.41652
N         11.17523        7.22206        1.24957
S         11.15131        6.47626        2.71944
N         10.07910        5.26174        2.42060
C          9.64478        5.41596        1.15360
C          6.92429        3.87020        2.39348
C          6.58053        5.20636        2.88384
O          7.27423        6.21083        2.80387
O          5.37610        5.31595        3.48321
H          8.25594        2.89787        4.96321
H          7.32746        1.82471        6.05881
H          8.12837        3.27744        6.68446
H          4.43579        5.31072        8.26852
H          4.75911        5.35143        6.53408
H          5.95095        4.63601        7.70372
H          2.50396        3.10795        8.46201
H          0.57633        2.87584        9.85117
H         -1.10439        1.13144        9.40015
H         -2.75221       -2.36630        7.18315
H         -1.58301       -3.42232        6.38075
H         -2.60598       -2.31675        5.42118
H         -0.55283       -2.88660        4.26130
H          1.16160       -2.80453        4.67863
H          0.46977       -1.66682        3.49776
H          6.87065        0.47510        2.33676
H          7.45582        2.67164       -2.90637
H          6.94853        2.26244       -1.28571
H          8.70129        2.50073       -1.65875
H          7.58610        5.42073       -3.68763
H          8.80223        4.07816       -3.87409
H          8.87504        5.50160       -4.88351
H         12.67808        7.81343       -0.50421
H         13.79324        9.71321       -1.52164
H         12.76082       10.88184       -3.43587
H          9.71586       11.38185       -6.62908
H          8.01354       11.00404       -6.34516
H          9.07480        9.82152       -7.16013
H          6.63727        9.39100       -5.20971
H          6.78001        7.87019       -4.31844
H          7.48573        8.00107       -5.93402
H          5.41108        6.23439        3.82208
