65

C         -0.31086        0.51964        1.51185
F         -0.77706        1.16250        2.59237
C          0.17260        1.24315        0.43608
F          0.17638        2.58394        0.46690
C          0.66191        0.56938       -0.66754
F          1.14184        1.25893       -1.71302
C          0.66327       -0.82486       -0.70248
F          1.18671       -1.41346       -1.78736
C          0.15627       -1.59395        0.36381
C         -0.32234       -0.87787        1.47669
F         -0.80324       -1.52756        2.54683
C          0.13253       -3.07830        0.33995
C          0.24254       -3.96532        1.39999
C          0.22166       -5.32679        0.96211
C          0.02364       -5.45371       -0.37668
S         -0.10898       -3.90766       -1.15719
C         -0.03612       -6.81166       -0.81274
C          0.10500       -7.70689        0.23622
S          0.40166       -6.87872        1.72879
C          0.10122       -9.19583        0.18456
C          0.69583       -9.93752       -0.86405
C          0.71008      -11.38963       -0.88566
N          1.34104      -12.02899       -1.89578
C          1.88767      -11.30378       -2.89171
C          1.84469       -9.93373       -2.88628
N          1.26981       -9.24684       -1.87644
F          2.36757       -9.23556       -3.90362
F          2.46607      -11.96121       -3.90606
C          0.08774      -12.17355        0.11779
C         -0.54388      -11.45768        1.17751
C         -0.54440       -9.95054        1.20793
N         -1.22276       -9.46871        2.26513
S         -1.74141      -10.74550        3.16563
N         -1.19631      -11.98680        2.22949
C          0.03027      -13.66383        0.13969
C          0.07206      -14.51661        1.23421
C         -0.04524      -15.88968        0.85914
C         -0.13422      -16.06683       -0.48691
S         -0.19939      -14.54869       -1.33054
C         -0.16151      -17.44073       -0.87195
C         -0.19105      -18.27547        0.23055
S         -0.09683      -17.40605        1.71853
C         -0.28747      -19.70017        0.25724
C         -1.48221      -20.33251        0.28212
O         -1.62165      -21.71374        0.30965
C         -0.49972      -22.49761        0.29049
C         -0.69254      -23.88019        0.29295
C          0.40968      -24.73781        0.26914
C          1.70235      -24.21217        0.24722
C          1.89449      -22.82997        0.24662
C          0.78669      -21.97529        0.26551
C          0.95928      -20.51521        0.25099
O          2.08151      -20.01715        0.21885
C         -2.81973      -19.64647        0.26086
H          0.35800       -3.67533        2.43823
H         -0.17841       -7.09646       -1.84821
H          0.17137      -14.19450        2.26352
H         -0.18561      -17.78795       -1.89708
H         -1.69846      -24.29096        0.30879
H          0.26019      -25.81409        0.26535
H          2.56136      -24.88005        0.22716
H          2.90290      -22.42209        0.22705
H         -2.78112      -18.62268       -0.11991
H         -3.24201      -19.62532        1.27054
H         -3.51301      -20.19510       -0.38664
