81

C          0.65065        0.49963       -1.55335
F          0.23723        1.55307       -0.83539
C          1.35995        0.69746       -2.72538
F          1.63487        1.93961       -3.14580
C          1.79072       -0.39645       -3.45612
F          2.48298       -0.21232       -4.58913
C          1.51908       -1.69076       -3.01213
F          2.00217       -2.71047       -3.73790
C          0.79387       -1.92443       -1.83001
C          0.36780       -0.79303       -1.11383
F         -0.33489       -0.93430        0.02100
C          0.50620       -3.28180       -1.31957
C          0.40974       -3.71498        0.00856
C          0.14014       -5.09826        0.08657
C          0.01341       -5.65464       -1.16421
S          0.18780       -4.59130       -2.42425
C         -0.22519       -7.03671       -1.02612
C         -0.22515       -7.36334        0.30896
C         -0.04372       -6.14255        1.09784
C         -0.09186       -6.00113        2.43651
C         -0.31684       -7.10928        3.29839
N         -0.50090       -8.00762        4.00937
C          0.04809       -4.72969        3.05731
N          0.15872       -3.68892        3.55977
C         -0.38597       -8.75546        0.49594
C         -0.53114       -9.43498       -0.72084
S         -0.53832       -8.29699       -2.05017
C         -0.71657      -10.89018       -0.97428
C         -1.44086      -11.74773       -0.11563
C         -1.57747      -13.17149       -0.35890
N         -2.25543      -13.93022        0.53295
C         -2.81346      -13.33672        1.60807
C         -2.70389      -11.98897        1.82139
N         -2.02364      -11.19653        0.97315
C         -1.03038      -13.80672       -1.50060
C         -0.34653      -12.95724       -2.42176
C         -0.14335      -11.49562       -2.12870
N          0.63645      -10.90374       -3.05270
S          0.94538      -11.99578       -4.24110
N          0.16183      -13.29934       -3.61904
C         -1.13959      -15.26918       -1.77938
C         -2.15939      -16.17619       -1.45194
C         -1.88543      -17.48087       -1.93230
C         -0.69378      -17.52315       -2.61568
S          0.17390      -16.11599       -2.57682
C         -0.50148      -18.81846       -3.14021
C         -1.55577      -19.61654       -2.75706
C         -2.48806      -18.81752       -1.94869
C         -3.61498      -19.22206       -1.33467
C         -4.05941      -20.57153       -1.40946
N         -4.41362      -21.67599       -1.46107
C         -4.40783      -18.33372       -0.55198
N         -5.05687      -17.61798        0.08940
C         -1.41155      -20.93339       -3.25787
C         -0.25649      -21.06212       -4.03834
S          0.62798      -19.55720       -4.10847
C          0.24719      -22.19254       -4.75655
C          1.17309      -23.02364       -4.23169
O          1.72729      -24.09856       -4.91559
C          1.30569      -24.37092       -6.18781
C          1.87777      -25.47662       -6.81996
C          1.48115      -25.82400       -8.11256
C          0.51624      -25.06255       -8.77311
C         -0.04917      -23.95116       -8.14307
C          0.35011      -23.60782       -6.84561
C         -0.23033      -22.44611       -6.14895
O         -1.06807      -21.74084       -6.70056
C          1.73626      -22.92389       -2.84109
H          0.54833       -3.04707        0.85077
H         -0.39543       -9.26822        1.45220
H         -3.35439      -13.98258        2.28975
H         -3.15265      -11.50243        2.68020
H         -3.04813      -15.87637       -0.90927
H         -2.09244      -21.76086       -3.09829
H          2.62914      -26.07097       -6.30592
H          1.92257      -26.68822       -8.60244
H          0.20391      -25.33597       -9.77899
H         -0.80068      -23.35919       -8.66158
H          1.09976      -22.36013       -2.15467
H          2.72523      -22.45616       -2.87041
H          1.84946      -23.92703       -2.41374
