83

C          1.92593       -0.46521        3.13996
F          2.63744        0.58543        2.70791
C          1.39200       -0.45685        4.41720
F          1.57742        0.59868        5.22120
C          0.65743       -1.54335        4.85621
F          0.12934       -1.54248        6.08794
C          0.45010       -2.63717        4.01802
F         -0.30065       -3.64199        4.49301
C          0.97736       -2.67952        2.71464
C          1.72221       -1.56109        2.29935
F          2.26525       -1.52247        1.07232
C          0.74051       -3.81849        1.79891
C          0.65336       -3.82065        0.40188
C          0.38687       -5.11289       -0.10066
C          0.30717       -6.04202        0.90983
S          0.55183       -5.43514        2.43101
C          0.02950       -7.30619        0.35065
C         -0.08655       -7.17324       -1.01278
C          0.16806       -5.78011       -1.38411
C          0.23203       -5.24604       -2.62022
C          0.02674       -6.03130       -3.78533
N         -0.14645       -6.67066       -4.73861
C          0.52970       -3.86927       -2.82189
N          0.77294       -2.74614       -2.98258
C         -0.41071       -8.40249       -1.62456
C         -0.48255       -9.44632       -0.69246
S         -0.13578       -8.85564        0.91542
C         -0.73324      -10.89136       -0.91940
C         -1.47813      -11.73437       -0.06098
C         -1.61622      -13.15224       -0.29568
N         -2.27318      -13.90367        0.61981
C         -2.84289      -13.31716        1.70306
C         -2.75518      -11.96657        1.89837
N         -2.07930      -11.18216        1.01937
C         -3.33538      -11.29721        3.02337
N         -3.81491      -10.77742        3.94159
C         -3.53609      -14.19083        2.60112
N         -4.10378      -14.88026        3.34341
C         -1.08699      -13.79068       -1.44565
C         -0.37680      -12.96121       -2.36196
C         -0.17911      -11.49666       -2.08402
N          0.56311      -10.89320       -3.03002
S          0.91541      -12.01531       -4.18693
N          0.17583      -13.33618       -3.52977
C         -1.20258      -15.24255       -1.74881
C         -0.26871      -16.10201       -2.34549
C         -0.76469      -17.42219       -2.46218
C         -2.02118      -17.53771       -1.91526
S         -2.68056      -16.10683       -1.39585
C         -2.43291      -18.88890       -1.97995
C         -1.45222      -19.62511       -2.60769
C         -0.33984      -18.73182       -2.96357
C          0.80545      -19.03380       -3.61159
C          1.08806      -20.35530       -4.04979
N          1.32522      -21.43619       -4.40070
C          1.79437      -18.04710       -3.88364
N          2.61356      -17.25006       -4.09421
C         -1.82464      -20.98934       -2.71323
C         -3.05935      -21.24526       -2.09756
S         -3.74317      -19.76975       -1.45337
C         -3.78925      -22.47825       -1.98330
C         -3.65845      -23.31381       -0.92774
O         -4.31024      -24.53488       -0.81748
C         -5.18592      -24.92359       -1.78816
C         -5.83161      -26.14720       -1.59391
C         -6.74862      -26.60834       -2.53668
C         -7.01775      -25.84328       -3.67187
C         -6.36452      -24.62036       -3.86673
C         -5.44128      -24.16210       -2.91863
C         -4.71645      -22.88648       -3.08893
O         -4.87963      -22.20903       -4.09818
C         -2.82001      -23.08064        0.29725
H          0.76450       -2.92106       -0.19235
H         -0.56796       -8.55637       -2.68551
H          0.71067      -15.76426       -2.66562
H         -1.25386      -21.77059       -3.20152
H         -5.61974      -26.73993       -0.70722
H         -7.25170      -27.56097       -2.38463
H         -7.73587      -26.20220       -4.40616
H         -6.57872      -24.03173       -4.75605
H         -2.61466      -22.02835        0.49942
H         -1.87525      -23.62605        0.21132
H         -3.34614      -23.47454        1.17716
