109

C         -6.78309       -2.35734        3.18100
C         -5.98224       -3.15106        3.98622
C         -4.90085       -3.96638        3.47956
N         -4.19121       -4.70638        4.36882
C         -4.52968       -4.64011        5.67380
C         -5.56389       -3.85770        6.12586
N         -6.29900       -3.10485        5.28554
C         -4.58198       -4.01002        2.09432
C         -5.37017       -3.16070        1.24195
C         -6.49563       -2.34412        1.80904
N         -7.17369       -1.63492        0.89318
S         -6.45707       -1.94454       -0.56469
N         -5.24397       -2.95513       -0.08061
C         -3.52290       -4.88255        1.51629
C         -2.30839       -5.33339        2.05810
C         -1.61039       -6.13625        1.13335
C         -2.28495       -6.33650       -0.04709
S         -3.77909       -5.59523       -0.05964
C         -1.64731       -7.16128       -1.02280
C         -0.43617       -7.71056       -0.66696
Si        -0.00365       -7.09264        1.05112
C          0.27742       -8.35119        2.41556
C          1.12717       -8.08973        3.51066
C          1.32239       -9.03085        4.52610
C          0.66077      -10.25225        4.47932
C         -0.18952      -10.53582        3.41308
C         -0.38001       -9.59844        2.39169
C          1.59835       -6.08658        0.94680
C          1.55563       -4.69646        0.73529
C          2.73381       -3.95477        0.61188
C          3.97316       -4.58472        0.70346
C          4.03842       -5.95829        0.91067
C          2.86349       -6.70614        1.01856
C          0.16550       -8.46392       -1.68832
C         -0.63280       -8.45332       -2.83541
S         -2.10059       -7.55715       -2.58542
C         -0.37496       -9.02152       -4.16107
N         -1.43022       -9.36742       -4.89945
C         -1.12132       -9.81480       -6.11109
N          0.11556       -9.93226       -6.59959
C          1.07768       -9.56151       -5.76340
N          0.90513       -9.10754       -4.52801
C         -2.24669      -10.20514       -6.97377
C         -3.62133      -10.19524       -6.70094
C         -4.34180      -10.65786       -7.81241
C         -3.56101      -10.97316       -8.90086
S         -1.92867      -10.76781       -8.59194
C         -4.25305      -11.42873      -10.06553
C         -5.62308      -11.51948       -9.96958
Si        -6.13086      -10.93730       -8.27366
C         -7.15628       -9.36159       -8.17355
C         -7.52539       -8.65358       -9.33436
C         -8.24991       -7.45945       -9.25336
C         -8.62003       -6.94902       -8.01012
C         -8.27114       -7.63490       -6.84954
C         -7.54676       -8.82692       -6.92749
C         -7.09585      -12.21928       -7.29911
C         -6.42592      -13.13133       -6.46007
C         -7.12907      -14.10793       -5.74815
C         -8.51411      -14.19595       -5.86010
C         -9.19693      -13.31045       -6.69147
C         -8.49615      -12.33526       -7.40800
C         -6.23281      -12.07087      -11.10628
C         -5.28684      -12.36652      -12.09567
S         -3.69473      -11.87467      -11.57639
C         -5.47140      -12.96405      -13.44314
C         -4.52018      -13.78883      -14.11457
C         -4.76431      -14.30852      -15.43868
N         -3.86712      -15.06334      -16.09095
C         -2.70614      -15.32926      -15.46105
C         -2.45217      -14.86496      -14.19772
N         -3.34751      -14.11720      -13.52167
C         -5.93665      -14.07427      -16.13737
C         -6.91509      -13.28522      -15.51005
C         -6.69127      -12.70743      -14.14315
N         -7.74181      -11.96842      -13.73848
S         -8.88528      -12.02349      -14.93328
N         -8.10554      -12.97037      -16.04311
H         -7.59268       -1.76559        3.59188
H         -3.93733       -5.24307        6.35312
H         -5.83611       -3.80906        7.17505
H         -1.96806       -5.07853        3.05469
H          1.66577       -7.14510        3.59216
H          1.98878       -8.80460        5.35406
H          0.80475      -10.98078        5.27430
H         -0.70957      -11.48957        3.37840
H         -1.05968       -9.85820        1.58039
H          0.60568       -4.16975        0.64358
H          2.68258       -2.88385        0.43234
H          4.88696       -4.00478        0.60343
H          5.00418       -6.45241        0.98169
H          2.95459       -7.78188        1.16499
H          1.12914       -8.95854       -1.64222
H          2.09670       -9.63130       -6.12840
H         -4.03433       -9.86885       -5.75403
H         -7.24190       -9.01197      -10.32422
H         -8.51443       -6.92186      -10.15812
H         -9.17430       -6.01731       -7.94712
H         -8.55695       -7.23545       -5.87887
H         -7.28652       -9.33075       -5.99631
H         -5.34135      -13.10476       -6.35416
H         -6.59206      -14.80452       -5.10892
H         -9.05736      -14.95296       -5.30719
H        -10.27684      -13.38200       -6.78408
H         -9.06658      -11.66725       -8.05278
H         -7.29451      -12.26321      -11.20991
H         -1.98885      -15.92952      -16.00703
H         -1.51942      -15.07195      -13.68472
H         -6.09546      -14.48289      -17.12721
