60

C          0.97132       -1.78087       -1.63697
C          0.35103       -0.83794       -0.65593
C         -0.41269        0.31095       -1.08152
C         -0.92168        1.06914       -0.04441
C         -1.73042        2.30667       -0.08540
C         -2.65181        2.63673        0.90995
F         -2.87494        1.81172        1.94430
C         -3.38947        3.82787        0.88214
F         -4.17978        4.04958        1.93913
C         -3.28232        4.76146       -0.15489
C         -4.06253        6.03587       -0.16567
S         -3.29537        7.45671       -0.79567
C         -4.63696        8.46808       -0.51139
C         -4.66896        9.94720       -0.83170
C         -3.49627       10.66776       -0.93883
S         -3.75244       12.30814       -1.30068
C         -5.46016       12.10654       -1.33999
C         -6.40422       13.11308       -1.62598
C         -7.76682       12.79719       -1.62424
C         -8.17365       11.50484       -1.34025
C         -9.57817       11.17882       -1.32987
N        -10.70647       10.90713       -1.31499
C         -7.23817       10.51315       -1.07304
C         -5.83496       10.78502       -1.05118
C         -5.65160        7.75334        0.07383
C         -5.34513        6.35871        0.28803
C         -6.37121        5.46743        0.91662
C         -2.36399        4.41931       -1.16318
F         -2.16096        5.23089       -2.21303
C         -1.61404        3.22854       -1.13046
F         -0.76345        2.99766       -2.14550
S         -0.43119        0.39224        1.45028
C          0.39370       -0.93410        0.73209
C          1.03585       -1.93896        1.56936
C          2.18748       -2.65916        1.31001
C          2.54883       -3.58813        2.34694
C          3.63940       -4.48923        2.44050
C          3.78205       -5.32051        3.56213
C          4.90160       -6.22526        3.62552
N          5.78676       -6.96537        3.71148
C          2.84789       -5.26244        4.59318
C          1.76914       -4.37518        4.52782
C          1.63521       -3.54568        3.39752
S          0.39907       -2.39154        3.10097
H          0.82478       -1.43353       -2.66525
H          0.52728       -2.77761       -1.55020
H          2.05096       -1.85128       -1.48343
H         -0.57615        0.55655       -2.12545
H         -2.48193       10.32040       -0.79049
H         -6.08037       14.12600       -1.85145
H         -8.49096       13.57598       -1.84185
H         -7.58828        9.49635       -0.88191
H         -6.58356        8.19014        0.40558
H         -7.20469        6.05863        1.31596
H         -5.99123        4.91756        1.77468
H         -6.77463        4.76659        0.18126
H          2.78073       -2.53760        0.41426
H          4.36642       -4.53494        1.63157
H          2.94712       -5.90817        5.46496
H          1.04283       -4.33027        5.33560
