105

C         -3.49998        1.16605        7.84338
C         -2.61334        0.12494        7.71264
C         -1.64714       -0.21964        8.72157
N         -0.85650       -0.52979        9.50778
C         -2.53508       -0.74903        6.56718
N         -2.44326       -1.46954        5.66479
C         -3.63959        2.08487        9.01729
C         -4.67860        2.97995        8.80087
C         -5.08376        3.95520        9.70887
C         -4.38657        4.01336       10.90085
C         -3.33498        3.13010       11.14467
C         -2.93409        2.15450       10.22463
S         -2.69447        3.43795       12.65583
C         -3.76298        4.70166       13.00204
C         -4.63707        4.90242       11.94073
Br        -3.75030        5.69336       14.62055
C         -5.27261        2.74862        7.54922
O         -6.26738        3.36410        7.20982
C         -4.54700        1.63014        6.86919
C         -4.79819        1.10274        5.65135
C         -5.78926        1.60506        4.73508
C         -6.48407        0.83033        3.80416
C         -7.25188        1.64225        3.02172
C         -7.19938        2.93402        3.40387
S         -6.14695        3.24096        4.58577
C         -7.96963        3.80483        2.68159
C         -8.50169        3.22047        1.60372
Ge        -8.40347        1.29243        1.55575
C         -8.44935        0.95255       -0.30230
C         -9.00366       -0.46779        2.16837
C         -9.13128        4.09945        0.80772
C         -9.32449        5.25307        1.53125
S         -8.40278        5.38046        2.95035
C        -10.53789        6.00405        1.33995
C        -10.54871        7.37622        1.51669
C        -11.73792        8.09148        1.34229
N        -11.69108        9.44469        1.50452
C        -10.54914       10.10416        1.82209
C         -9.37919        9.37957        2.00872
N         -9.40566        8.03806        1.84376
F         -8.22187        9.99617        2.34577
F        -10.55576       11.45176        1.95236
C        -12.95180        7.41014        1.03549
C        -12.95503        6.01973        0.92896
C        -11.75082        5.31018        1.07905
N        -11.86946        3.95241        0.99403
S        -13.47390        3.73174        0.68541
N        -14.06029        5.26967        0.66138
C        -14.17595        8.15332        0.81820
C        -15.49746        7.74122        1.07262
C        -16.36901        8.73562        0.70521
C        -15.72169        9.80507        0.19613
S        -14.11039        9.68322        0.13133
C        -16.49500       10.83027       -0.27499
C        -17.81415       10.66528       -0.09704
Ge       -18.27181        8.96574        0.78719
C        -19.55650        8.01899       -0.32241
C        -18.56009        8.31012        2.60723
C        -18.47067       11.72262       -0.68676
C        -17.61738       12.63433       -1.28209
S        -16.03875       12.15924       -1.15071
C        -18.12452       13.74633       -2.03279
C        -17.61812       14.98212       -2.24100
C        -16.41063       15.85224       -1.79869
C        -15.40792       15.71775       -0.85092
C        -14.34255       16.67496       -0.62354
N        -13.47472       17.41424       -0.40811
C        -15.26508       14.66981        0.09364
N        -15.07623       13.85801        0.89423
C        -16.55531       17.09293       -2.62350
C        -17.70795       17.02752       -3.40073
C        -18.39422       15.80623       -3.17259
O        -19.44177       15.49307       -3.72449
C        -18.10080       18.03455       -4.28048
C        -17.28346       19.15571       -4.36214
C        -16.14436       19.25462       -3.57462
C        -15.75573       18.25131       -2.69531
S        -15.36750       20.70717       -3.87855
C        -16.48593       21.21216       -5.04023
C        -17.48232       20.25393       -5.19487
Br       -16.37934       22.85295       -5.99797
H         -5.90843        4.62816        9.48822
H         -2.12360        1.49892       10.46363
H         -5.41869        5.65434       11.92119
H         -4.25752        0.27063        5.24892
H         -6.45816       -0.24219        3.68934
H         -8.37029        1.90846       -0.84945
H         -9.43985        0.48806       -0.51684
H         -7.62173        0.25764       -0.49100
H         -9.17961       -0.52806        3.26062
H         -8.16353       -1.15253        1.91501
H         -9.89968       -0.81800        1.61686
H         -9.60580        3.86955       -0.12769
H        -15.81324        6.81179        1.52000
H        -19.39547        8.29029       -1.36873
H        -20.57946        8.32143        0.00680
H        -19.44646        6.92429       -0.30942
H        -17.79118        8.70720        3.29847
H        -18.43848        7.20010        2.57758
H        -19.58147        8.53060        2.96955
H        -19.50572       11.88672       -0.73618
H        -19.07826       13.48385       -2.51155
H        -18.99748       17.93850       -4.87927
H        -14.86626       18.41647       -2.13511
H        -18.31040       20.34480       -5.88506
