147

C         -1.29232        4.37543       -4.53505
C         -0.24835        3.57677       -4.23553
C          0.82878        3.33072       -5.14776
N          1.68925        3.13624       -5.90013
C         -0.08905        2.98508       -2.94056
N          0.01879        2.49997       -1.87814
C         -1.50011        5.15813       -5.79171
C         -2.41388        6.18273       -5.51716
C         -2.90916        7.06509       -6.46764
C         -2.46511        6.90517       -7.79753
C         -1.53391        5.89286       -8.08376
C         -1.03765        5.00419       -7.09413
S         -1.12086        5.89321       -9.76346
C         -2.17462        7.17068      -10.09063
C         -2.84106        7.62269       -8.98417
Br        -2.41082        7.89621      -11.80119
C         -2.85417        6.12087       -4.11729
O         -3.42671        7.00134       -3.51280
C         -2.38121        4.78477       -3.62459
C         -3.05460        4.04780       -2.72415
C         -4.26514        4.48421       -2.12051
C         -4.46144        5.14394       -0.93195
C         -5.84693        5.41558       -0.60107
C         -6.67944        5.01286       -1.66617
S         -5.75824        4.09058       -2.81954
C         -8.07729        5.30101       -1.70492
C         -8.96357        4.88992       -2.85847
C        -10.26351        4.37443       -2.65907
C        -11.08842        3.95899       -3.72025
C        -10.62443        3.98876       -5.03360
C         -9.34024        4.48041       -5.26358
C         -8.55080        4.96203       -4.20278
C        -11.45852        3.44162       -6.15520
C         -8.65397        5.94652       -0.57573
C         -7.85975        6.15836        0.55165
C         -6.44719        5.97924        0.57188
C         -5.60879        6.38314        1.78667
C         -6.04633        6.23800        3.12516
C         -5.31388        6.68931        4.24117
C         -4.03759        7.21694        4.08498
C         -3.55286        7.34737        2.78536
C         -4.33966        6.98225        1.66996
C         -3.25050        7.67194        5.27754
S         -8.86792        6.61028        1.84601
C        -10.26372        6.89671        0.93680
C         -9.97975        6.51356       -0.36439
C        -11.47658        7.48126        1.58641
C        -11.63864        7.71172        2.98440
C        -12.82011        8.29801        3.55815
N        -12.87881        8.46127        4.90519
C        -11.84675        8.08854        5.68541
C        -10.73122        7.54886        5.15021
N        -10.63597        7.35955        3.82881
C        -13.93109        8.70765        2.76803
C        -13.80010        8.50903        1.35729
C        -12.56529        7.87826        0.76492
N        -12.65074        7.76086       -0.57272
S        -14.09269        8.37296       -1.05933
N        -14.68609        8.83011        0.39715
C        -15.17673        9.30206        3.35317
C        -15.50502        9.58002        4.66541
C        -16.82123       10.13329        4.92253
C        -17.35651       10.54611        3.69585
S        -16.56584        9.64271        2.45177
C        -18.47676       11.41894        3.57484
C        -18.83955       12.13635        2.24982
C        -18.10508       12.03203        1.04655
C        -18.43993       12.69010       -0.15740
C        -19.55177       13.51120       -0.22945
C        -20.26695       13.71253        0.93935
C        -19.88296       13.07677        2.13777
C        -19.92231       14.23142       -1.48798
C        -19.24924       11.60676        4.77506
C        -18.74840       11.16603        6.01629
C        -17.55162       10.38317        6.13402
C        -17.12865        9.72930        7.45521
C        -18.05844        9.26234        8.41418
C        -17.68098        8.67776        9.64799
C        -16.34214        8.44540        9.94903
C        -15.39997        8.84024        9.00886
C        -15.78859        9.49494        7.82259
C        -15.89768        7.86486       11.25986
S        -19.75352       11.81024        7.30155
C        -20.99373       12.32028        6.25649
C        -20.61483       12.04714        4.96176
C        -22.23690       12.82358        6.74905
C        -22.99221       13.73151        6.10826
C        -22.81505       14.54485        4.89532
C        -21.78313       15.37353        4.61385
C        -21.77563       16.26164        3.50160
N        -21.78368       16.96549        2.57946
C        -20.67218       15.50031        5.50134
N        -19.78707       15.65224        6.23627
C        -24.13686       14.59903        4.23308
C        -25.10878       14.28300        5.18565
C        -24.46127       13.80252        6.43062
O        -25.01886       13.46249        7.45159
C        -26.47060       14.33159        4.92442
C        -26.87814       14.67476        3.60963
C        -25.89319       14.90446        2.63433
C        -24.50926       14.86691        2.92230
S        -26.60217       15.22892        1.09225
C        -28.16455       15.13495        1.72085
C        -28.19631       14.83104        3.05626
Br       -29.70015       15.41652        0.68620
H         -3.64505        7.81729       -6.19626
H         -0.34999        4.21888       -7.39030
H         -3.56672        8.42759       -9.00111
H         -2.77206        3.02341       -2.50423
H         -3.61661        5.41110       -0.31437
H        -10.67254        4.27604       -1.65550
H        -12.09064        3.59381       -3.50244
H         -8.93345        4.49332       -6.27298
H         -7.58258        5.38245       -4.46152
H        -12.51350        3.70511       -6.02363
H        -11.36924        2.35072       -6.19234
H        -11.14082        3.84691       -7.12189
H         -6.99607        5.77422        3.36564
H         -5.75678        6.61060        5.23275
H         -2.55803        7.75524        2.61747
H         -3.92169        7.20690        0.69367
H         -3.30416        6.93117        6.08325
H         -3.63932        8.62514        5.65138
H         -2.19182        7.80614        5.03115
H        -10.68951        6.60384       -1.17747
H        -11.96289        8.24631        6.75274
H         -9.86991        7.24948        5.74421
H        -14.79514        9.37352        5.43709
H        -17.18869       11.46689        0.96519
H        -17.79811       12.55401       -1.02657
H        -21.11375       14.39586        0.94097
H        -20.42373       13.41773        3.00066
H        -19.37211       13.84034       -2.35026
H        -19.69582       15.29802       -1.39081
H        -20.99053       14.10900       -1.69487
H        -19.12730        9.34118        8.23841
H        -18.45499        8.40511       10.36405
H        -14.34162        8.67008        9.19532
H        -14.96458        9.84023        7.21635
H        -16.70558        7.31928       11.75830
H        -15.55317        8.66171       11.92852
H        -15.07207        7.15950       11.11012
H        -21.32196       12.15834        4.15188
H        -22.64517       12.32864        7.63171
H        -27.19654       14.09470        5.69889
H        -23.79038       15.03980        2.12821
H        -29.11143       14.72534        3.62763
