93

C         -0.87956        0.33346        1.18489
C          0.03544       -0.12362        2.07723
C          1.08181       -1.02338        1.72499
N          1.93671       -1.76018        1.45550
C          0.06921        0.29064        3.44205
N          0.09156        0.62909        4.54961
C         -0.89551        0.04779       -0.28729
C         -1.78126        0.93368       -0.90171
C         -2.03742        0.96927       -2.26924
C         -1.37013        0.03443       -3.08714
C         -0.49015       -0.87578       -2.48332
C         -0.24152       -0.88712       -1.08469
S          0.20517       -1.93591       -3.65905
C         -0.64663       -1.20371       -4.91884
C         -1.44729       -0.17285       -4.50660
Br        -0.51264       -1.75301       -6.70467
C         -2.44214        1.78904        0.08657
O         -3.22428        2.67338       -0.19395
C         -1.96338        1.32107        1.43521
C         -2.55159        1.69353        2.58619
C         -3.61750        2.63314        2.64559
C         -3.55735        3.99642        2.83464
C         -4.84605        4.61065        2.85091
Cl        -4.96373        6.31025        3.07250
C         -5.88218        3.69684        2.69547
S         -5.23720        2.10946        2.50080
C         -7.32020        3.91130        2.63933
C         -8.35878        3.12742        3.11517
Cl        -8.25289        1.64429        3.97714
C         -9.64614        3.68332        2.83504
C         -9.59957        4.90204        2.17880
S         -7.96245        5.26887        1.80597
C        -10.70892        5.80382        1.76148
C        -10.62609        7.21859        1.69294
C        -11.73649        8.04996        1.29141
N        -11.55924        9.39082        1.22399
C        -10.36708        9.94155        1.55859
C         -9.32071        9.15782        1.94692
N         -9.45578        7.81213        2.02364
C         -8.02612        9.68220        2.27575
N         -6.99061       10.13248        2.52415
C        -10.29522       11.37418        1.50366
N        -10.21147       12.52645        1.48061
C        -13.01012        7.52194        0.96271
C        -13.13393        6.10244        1.01104
C        -11.96859        5.23275        1.41362
N        -12.28172        3.92438        1.38912
S        -13.85854        3.78647        0.92934
N        -14.23527        5.37998        0.73586
C        -14.19927        8.33347        0.58558
C        -15.22746        8.04608       -0.29526
C        -16.20912        9.08309       -0.39337
Cl       -17.54388        8.87451       -1.45903
C        -15.92721       10.17370        0.41762
S        -14.51152        9.84750        1.33515
C        -16.66243       11.41977        0.60272
C        -16.21537       12.70495        0.88044
Cl       -14.60209       13.22987        1.15073
C        -17.27351       13.66875        0.90804
C        -18.51746       13.12438        0.65550
S        -18.38468       11.41195        0.60227
C        -19.77689       13.79570        0.60142
C        -20.82336       13.45070       -0.16405
C        -21.06363       12.41694       -1.18343
C        -20.25905       12.10945       -2.22997
C        -20.61076       11.14343       -3.21584
N        -20.90111       10.34818       -4.00848
C        -19.03988       12.80656       -2.48788
N        -18.06224       13.38613       -2.71982
C        -22.49131       12.02316       -1.04815
C        -23.14557       13.01326       -0.30763
C        -22.17255       13.98879        0.22195
O        -22.42007       14.97078        0.88695
C        -24.51502       13.01881       -0.07401
C        -25.27768       11.95916       -0.61980
C        -24.61310       10.93267       -1.31029
C        -23.21213       10.93372       -1.51674
S        -25.72286        9.72799       -1.85955
C        -27.04536       10.57918       -1.24990
C        -26.69715       11.73099       -0.59615
Br       -28.81503       10.00014       -1.45260
H         -2.74292        1.68569       -2.68235
H          0.43781       -1.63466       -0.69313
H         -2.07040        0.41259       -5.17230
H         -2.26523        1.28389        3.54747
H         -2.62440        4.53912        2.94143
H        -10.56750        3.19330        3.12774
H        -15.29139        7.12216       -0.85929
H        -17.11643       14.72825        1.08138
H        -19.90029       14.61968        1.30669
H        -24.97873       13.81670        0.49954
H        -22.75429       10.10120       -2.04081
H        -27.41176       12.40069       -0.13298
