101

C          0.24647        2.91484        4.14720
C          1.41485        3.02399        3.46732
C          2.68680        2.82787        4.07194
N          3.72698        2.67074        4.56657
C          1.46408        3.28769        2.06416
N          1.50043        3.50228        0.92166
C          0.08977        2.51994        5.58570
C         -1.24786        2.18135        5.80526
C         -1.76979        1.78727        7.03207
C         -0.88713        1.72983        8.13003
C          0.46018        2.06597        7.92768
C          0.96788        2.47076        6.66378
S          1.35923        1.92166        9.39767
C         -0.00835        1.44451       10.26432
C         -1.14196        1.38211        9.50014
Br         0.02296        1.04279       12.09353
C         -2.04002        2.35353        4.58459
O         -3.19275        1.99959        4.45269
C         -1.12390        3.01605        3.59428
C         -1.57568        3.70375        2.53216
C         -2.95561        3.81889        2.21546
C         -3.73941        2.99168        1.41225
C         -5.05303        3.48985        1.30472
C         -5.22157        4.63889        2.04475
S         -3.86238        5.16857        2.83613
C         -6.54741        5.08931        1.88991
C         -7.21280        4.23379        1.04229
C         -6.30677        3.16309        0.62736
C         -6.56032        2.12927       -0.19783
C         -5.56241        1.16919       -0.52063
N         -4.74683        0.38956       -0.79063
C         -7.83536        1.94901       -0.79957
N         -8.87672        1.80913       -1.29278
C         -8.53852        4.65703        0.81821
C         -8.82011        5.83734        1.51373
S         -7.45369        6.35484        2.45768
C        -10.06411        6.57920        1.51088
C        -10.29205        7.92855        1.69220
C        -11.69328        8.28471        1.60313
N        -12.15452        9.56184        1.74182
C        -11.13502       10.45077        1.96615
C        -11.54729       11.86716        2.11244
O        -12.71737       12.22454        2.06387
C        -10.49301       12.87791        2.32406
C         -9.20545       12.54500        2.41627
C         -8.75729       11.14517        2.30532
O         -7.56533       10.89020        2.42282
C         -9.78419       10.10663        2.05088
N         -9.30222        8.83860        1.91172
C        -12.50676        7.19534        1.36945
S        -11.55194        5.76696        1.23388
C        -13.94638        7.14610        1.22055
C        -14.79455        8.13458        0.71045
C        -16.14169        7.70578        0.71699
C        -16.25908        6.43977        1.24402
S        -14.84160        5.73853        1.72560
C        -17.61332        6.06249        1.24922
C        -18.36090        7.09163        0.72944
C        -17.47209        8.19319        0.35017
C        -17.81078        9.36657       -0.21809
C        -16.83555       10.33078       -0.58809
N        -16.04632       11.11360       -0.92014
C        -19.16794        9.68595       -0.50255
N        -20.28660        9.91133       -0.71869
C        -19.72975        6.76174        0.69913
C        -19.96524        5.49466        1.24250
S        -18.47268        4.71743        1.69725
C        -21.17549        4.76294        1.39926
C        -22.37289        5.30792        1.65205
C        -22.85510        6.67229        1.90426
C        -22.30071        7.60371        2.71970
C        -22.82353        8.92018        2.86426
N        -23.22784       10.00367        2.96116
C        -21.19019        7.31579        3.56922
N        -20.31498        7.11107        4.30193
C        -24.24156        6.73019        1.35763
C        -24.67083        5.41934        1.11761
C        -23.57036        4.46525        1.33439
O        -23.62608        3.26064        1.20454
C        -25.95879        5.08660        0.71718
C        -26.89097        6.13993        0.57986
C        -26.45416        7.45876        0.77922
C        -25.12235        7.77897        1.13544
S        -27.74414        8.58572        0.56016
C        -28.85381        7.35105        0.26343
C        -28.29331        6.10168        0.26798
Br       -30.67494        7.66673       -0.03665
H         -2.82629        1.55407        7.13628
H          2.01479        2.74196        6.59242
H         -2.11615        1.10233        9.88357
H         -0.91627        4.27161        1.88540
H         -3.34601        2.09654        0.94676
H         -9.26125        4.16650        0.17738
H        -10.82413       13.90816        2.40479
H         -8.42929       13.28561        2.57813
H        -14.43196        9.09452        0.35957
H        -20.52131        7.38712        0.30832
H        -21.11886        3.68974        1.20455
H        -26.23955        4.05005        0.55045
H        -24.85121        8.82118        1.25610
H        -28.84980        5.18999        0.08748
