93

C          0.24428        4.81289        4.32787
C          1.38495        5.23787        3.73219
C          2.60780        5.42126        4.44163
N          3.60245        5.57233        5.01342
C          1.47340        5.48303        2.33180
N          1.53500        5.68904        1.19039
C          0.08349        4.41139        5.76304
C         -1.11562        3.70515        5.88503
C         -1.60976        3.19997        7.08146
C         -0.84007        3.39927        8.24643
C          0.37433        4.09447        8.14000
C          0.84872        4.62160        6.90792
S          1.15997        4.19909        9.67812
C         -0.08699        3.35951       10.44675
C         -1.09921        2.99646        9.60047
Br        -0.08653        2.96187       12.27744
C         -1.79772        3.59869        4.58988
O         -2.73826        2.86999        4.35458
C         -1.04813        4.50773        3.66069
C         -1.59572        5.04574        2.55659
C         -2.93914        4.80865        2.14891
C         -3.46131        3.81334        1.31965
C         -4.85152        3.98258        1.12929
C         -5.32158        5.07072        1.82786
S         -4.17302        5.92321        2.66739
C         -6.70936        5.18319        1.62075
C         -7.12549        4.17341        0.78406
C         -5.96696        3.35515        0.41289
C         -5.92965        2.29125       -0.41277
C         -4.71523        1.60758       -0.69428
N         -3.72444        1.05173       -0.93175
C         -7.09748        1.80567       -1.06256
N         -8.04878        1.41245       -1.59920
C         -8.51699        4.24515        0.54380
C         -9.09040        5.33184        1.21156
S         -7.90157        6.20867        2.13709
C        -10.46327        5.81434        1.23278
N        -10.68228        7.14277        1.41005
N        -11.97597        7.73878        1.42824
C        -13.12628        7.03866        1.27247
C        -12.99290        5.64180        1.08721
C        -11.61318        5.00802        1.06479
N        -11.66241        3.67438        0.88269
S        -13.25806        3.25740        0.74044
N        -13.97637        4.73993        0.90160
C        -14.39145        7.75462        1.27244
C        -15.66211        7.34061        1.67889
C        -16.62403        8.34545        1.44512
C        -16.05362        9.46800        0.89064
S        -14.41739        9.38275        0.65210
C        -17.06732       10.39244        0.58024
C        -18.28378        9.85115        0.92985
C        -18.06927        8.54441        1.55376
C        -18.98509        7.71851        2.09606
C        -18.62535        6.45436        2.63733
N        -18.33057        5.41570        3.06781
C        -20.36146        8.06991        2.15132
N        -21.48618        8.35510        2.18701
C        -19.34919       10.68279        0.52585
C        -18.87161       11.82526       -0.11768
S        -17.13590       11.87628       -0.15957
C        -19.60135       12.83126       -0.78488
C        -19.94997       14.02383       -0.28765
C        -19.79679       14.81833        0.95214
C        -19.51142       14.42729        2.22179
C        -19.53515       15.32241        3.33227
N        -19.55284       16.02970        4.25439
C        -19.22528       13.10286        2.65200
N        -18.98996       12.08198        3.15307
C        -20.21618       16.22363        0.59140
C        -20.76739       16.21687       -0.68877
C        -20.65458       14.89275       -1.29263
O        -21.04821       14.59538       -2.40261
C        -21.31915       17.32599       -1.32226
C        -21.31167       18.55021       -0.62375
C        -20.71932       18.59024        0.64573
C        -20.15007       17.44381        1.25960
S        -20.79074       20.18218        1.31453
C        -21.60231       20.78235       -0.03783
C        -21.82126       19.83782       -1.00424
Br       -22.14409       22.56785       -0.19948
H         -2.56225        2.67796        7.11110
H          1.78373        5.17056        6.90949
H         -1.98632        2.45836        9.91308
H         -1.07432        5.78964        1.96427
H         -2.84419        3.02910        0.89858
H         -9.09281        3.57582       -0.08551
H        -15.85360        6.35501        2.08647
H        -20.40631       10.49730        0.67819
H        -19.86495       12.58727       -1.81910
H        -21.73997       17.24175       -2.32063
H        -19.68629       17.57234        2.22953
H        -22.32201       20.03869       -1.94375
