106

C         -1.79792        3.81738        9.99054
C         -1.39790        2.52617       10.07294
C         -0.31029        2.11445       10.89674
N          0.57475        1.78540       11.56947
C         -2.08224        1.47301        9.39757
N         -2.63864        0.62455        8.83476
C         -1.23674        4.97951       10.75059
C         -2.19905        5.99112       10.75716
C         -2.01890        7.25332       11.30168
C         -0.77244        7.52876       11.89578
C          0.20416        6.51912       11.91827
C         -0.00557        5.23364       11.34553
S          1.63955        7.07683       12.70697
C          0.97955        8.60811       12.97448
C         -0.29663        8.74020       12.50027
Br         1.90217        9.99364       13.83305
C         -3.39708        5.56692       10.03344
O         -4.47902        6.10752       10.10280
C         -2.99106        4.33808        9.27730
C         -3.50347        3.97143        8.08774
C         -4.47788        4.72371        7.35600
C         -4.65212        6.10644        7.24848
C         -5.68731        6.44295        6.36585
C         -6.27020        5.32633        5.81626
S         -5.61599        3.88486        6.32408
C         -7.28842        5.74645        4.93353
C         -7.34908        7.12302        4.93856
C         -6.32382        7.64789        5.83949
C         -6.01624        8.92917        6.10276
C         -4.95642        9.29119        6.98001
N         -4.07938        9.59657        7.67813
C         -6.72175       10.00156        5.49129
N         -7.29732       10.87005        4.98521
C         -8.35601        7.60979        4.07671
C         -9.03967        6.56308        3.45731
S         -8.35414        5.01545        3.89800
C        -10.10694        6.64353        2.47897
C        -11.11051        5.73023        2.20708
C        -11.51086        4.61794        3.06866
O        -11.51844        4.68861        4.28678
C        -11.95057        3.45136        2.30209
C        -12.27615        3.55235        0.88423
C        -12.41320        2.30129        0.30240
S        -12.46564        1.07559        1.50214
C        -12.10762        2.16069        2.78806
C        -11.98411        1.56648        4.16700
F        -11.65641        2.44195        5.14021
F        -13.15064        0.98413        4.55198
F        -11.03461        0.59413        4.19687
C        -12.47702        1.87148       -1.13765
F        -12.34093        2.87787       -2.02905
F        -11.46387        1.00469       -1.41530
F        -13.63397        1.22764       -1.42738
C        -12.35143        4.84060        0.17175
O        -12.90567        4.95858       -0.90816
C        -11.65233        5.92080        0.87648
C        -11.45310        7.22723        0.44980
S        -10.22662        7.97395        1.40503
C        -12.10706        7.99441       -0.59412
C        -11.56942        9.02028       -1.37963
C        -12.56861        9.64726       -2.15861
C        -13.79654        9.05236       -1.97867
S        -13.82310        7.83608       -0.85513
C        -14.76980        9.77069       -2.70149
C        -14.16484       10.84947       -3.30020
C        -12.72312       10.79849       -3.04879
C        -11.77218       11.62054       -3.53399
C        -10.40077       11.45529       -3.20150
N         -9.28293       11.31992       -2.91953
C        -12.10470       12.68844       -4.41383
N        -12.42387       13.54919       -5.12421
C        -15.11865       11.72982       -3.85026
C        -16.41698       11.22057       -3.74185
S        -16.41309        9.68415       -2.90694
C        -17.67972       11.78452       -4.09056
C        -17.89335       12.68777       -5.05690
C        -17.06331       13.32672       -6.08364
C        -16.19046       12.71493       -6.92242
C        -15.48010       13.41009       -7.94010
N        -14.89830       13.98010       -8.76773
C        -15.99539       11.30098       -6.91769
N        -15.83651       10.15155       -6.94307
C        -17.61018       14.70134       -6.26382
C        -18.88593       14.73986       -5.69022
C        -19.16440       13.48276       -4.97172
O        -20.18294       13.20605       -4.37410
C        -19.72783       15.84354       -5.75210
C        -19.25492       16.98987       -6.43222
C        -17.95401       16.97305       -6.96106
C        -17.10549       15.84250       -6.87141
S        -17.56749       18.47821       -7.71579
C        -19.09699       19.10844       -7.38642
C        -19.90393       18.24596       -6.69357
Br       -19.63179       20.82266       -7.91872
H         -2.80137        8.00527       11.23560
H          0.80370        4.51215       11.36737
H         -0.88090        9.65045       12.57196
H         -3.10930        3.10410        7.56426
H         -4.04847        6.81998        7.79277
H         -8.59408        8.65128        3.89861
H        -10.52904        9.31724       -1.32393
H        -14.90291       12.70652       -4.26218
H        -18.51508       11.52367       -3.43673
H        -20.71353       15.81887       -5.29500
H        -16.10382       15.90046       -7.28336
H        -20.91685       18.48094       -6.38925
