94

C          0.82024        4.55552        2.38126
C          1.43498        5.42656        3.21590
C          2.85254        5.50543        3.34028
N          4.00385        5.56320        3.44460
C          0.71834        6.38532        3.99689
N          0.13074        7.15159        4.63691
C          1.49162        3.62652        1.41868
C          0.55686        3.24386        0.45602
C          0.80868        2.36195       -0.58769
C          2.10274        1.81134       -0.67238
C          3.05681        2.18362        0.28824
C          2.77026        3.08827        1.34572
S          4.56431        1.38971       -0.00265
C          3.95218        0.57550       -1.34755
C          2.64158        0.86978       -1.61279
Br         4.96647       -0.61892       -2.37317
C         -0.74438        3.85075        0.72995
O         -1.66907        3.85954       -0.05464
C         -0.63459        4.45734        2.10289
C         -1.66977        4.68966        2.93008
C         -3.03502        4.43390        2.60656
C         -3.61659        3.38851        1.88533
C         -4.98619        3.60485        1.67281
C         -5.42447        4.72333        2.33934
S         -4.25667        5.53394        3.19460
C         -6.79278        4.89906        2.06504
C         -7.21179        3.90179        1.21377
C         -6.09086        3.00791        0.92842
C         -6.07280        1.90194        0.15863
C         -4.88987        1.13211       -0.02349
N         -3.93256        0.48920       -0.16476
C         -7.24185        1.42959       -0.49908
N         -8.19298        1.03583       -1.03422
C         -8.56482        4.06348        0.85765
C         -9.12244        5.18613        1.47569
S         -7.95626        5.99755        2.48579
C        -10.47701        5.72793        1.38381
C        -10.80087        7.08462        1.50322
N        -12.03862        7.66186        1.42628
C        -13.15466        6.90800        1.19965
C        -12.99813        5.50708        1.05397
C        -11.61076        4.90527        1.15107
N        -11.62562        3.56777        0.99943
S        -13.19430        3.11616        0.73383
N        -13.95029        4.58592        0.81475
C        -14.43680        7.59088        1.08592
C        -15.72324        7.15245        1.41025
C        -16.68870        8.13146        1.09672
C        -16.10949        9.25667        0.55443
S        -14.45909        9.20516        0.42844
C        -17.11817       10.18814        0.24114
C        -18.33492        9.65751        0.59840
C        -18.13818        8.31452        1.14510
C        -19.08100        7.44538        1.55822
C        -18.74692        6.16520        2.07745
N        -18.47905        5.12309        2.51167
C        -20.46307        7.76760        1.47605
N        -21.58109        8.06856        1.37993
C        -19.38295       10.56892        0.36425
C        -18.92361       11.72730       -0.26755
S        -17.18363       11.70570       -0.42474
C        -19.62175       12.88751       -0.70726
C        -20.88825       12.91673       -1.14483
C        -21.93746       11.91807       -1.39565
C        -21.80228       10.72869       -2.03275
C        -22.89397        9.84483       -2.26888
N        -23.78002        9.11718       -2.45267
C        -20.56886       10.30823       -2.61175
N        -19.58417        9.94917       -3.11207
C        -23.23678       12.60425       -1.13181
C        -22.99802       13.98248       -1.08862
C        -21.55416       14.26034       -1.15816
O        -21.03301       15.35548       -1.15440
C        -23.99683       14.93924       -0.96099
C        -25.33219       14.48355       -0.88698
C        -25.57457       13.10058       -0.88280
C        -24.53639       12.14076       -0.97734
S        -27.26571       12.76510       -0.76914
C        -27.65612       14.40621       -0.77817
C        -26.56053       15.22637       -0.81763
Br       -29.41862       15.03848       -0.74123
H          0.02370        2.09101       -1.28927
H          3.54907        3.30713        2.06706
H          2.07725        0.43951       -2.43183
H         -1.50592        5.08194        3.92921
H         -3.04057        2.57452        1.46534
H         -9.12346        3.42586        0.18261
H        -10.01570        7.82411        1.66629
H        -15.91750        6.17453        1.83525
H        -20.42287       10.41345        0.61759
H        -19.09015       13.83515       -0.59624
H        -23.75308       15.99819       -0.93851
H        -24.79250       11.08730       -0.94878
H        -26.61602       16.30835       -0.82023
