98

C         -0.49313        2.49234       -3.03520
C          0.44520        3.43788       -3.27665
C          1.69850        3.13352       -3.88038
N          2.71802        2.87753       -4.37154
C          0.20796        4.82085       -3.02649
N          0.00570        5.94307       -2.81381
C         -0.41926        1.05425       -3.42518
C         -1.72411        0.57401       -3.55268
C         -2.04681       -0.73775       -3.87447
C         -0.97874       -1.64262       -4.06076
C          0.33789       -1.17286       -3.92109
C          0.64161        0.17591       -3.60117
S          1.47920       -2.44612       -4.17402
C          0.25662       -3.57561       -4.45184
C         -1.00299       -3.04728       -4.36375
Br         0.59440       -5.37707       -4.83790
C         -2.68806        1.62572       -3.20716
O         -3.87184        1.60021       -3.46762
C         -1.87649        2.71203       -2.55435
C         -2.29689        3.54686       -1.58442
C         -3.61181        3.55002       -1.02216
C         -4.52864        2.51094       -0.84936
C         -5.77916        2.98586       -0.42800
C         -5.72913        4.31431       -0.09058
S         -4.25510        5.03762       -0.35532
C         -7.01998        4.72206        0.30802
C         -7.89648        3.67054        0.15259
C         -7.13611        2.47908       -0.23581
C         -7.54649        1.20398       -0.32686
C         -6.66885        0.14526       -0.70486
N         -5.96150       -0.72413       -0.99689
C         -8.86724        0.82850        0.03843
N         -9.93466        0.52031        0.37096
C         -9.24447        4.10196        0.28963
C         -9.32163        5.43961        0.70113
S         -7.70091        6.10785        0.89012
C        -10.49189        6.30180        0.89934
C        -11.80988        6.05764        1.30332
C        -12.64705        7.27829        1.25003
C        -14.01456        7.54630        1.57086
C        -14.57065        8.83456        1.45670
C        -13.77525        9.90178        1.07107
C        -12.43356        9.69068        0.77098
C        -11.90009        8.38587        0.85040
S        -10.30267        7.96568        0.47277
C        -15.96217        9.04794        1.73271
N        -17.08924        9.22820        1.94293
C        -12.32954        4.70617        1.79525
C        -11.57595        3.75190        2.48081
C        -12.37487        2.65862        2.89127
C        -13.69423        2.84779        2.55390
S        -13.98354        4.19446        1.63598
C        -14.47526        1.86032        3.18826
C        -13.64161        1.02580        3.90085
C        -12.25659        1.45046        3.70971
C        -11.13653        0.87833        4.18977
C         -9.85017        1.40039        3.88300
N         -8.80378        1.83409        3.62431
C        -11.18284       -0.26472        5.03585
N        -11.22450       -1.17783        5.74971
C        -14.36594        0.07511        4.64741
C        -15.73666        0.29547        4.52520
S        -16.09872        1.59255        3.42147
C        -16.78132       -0.26738        5.28739
C        -17.58268       -1.28342        4.95263
C        -17.80588       -2.21555        3.82789
C        -17.16106       -2.35072        2.64009
C        -17.67547       -3.14703        1.57282
N        -18.09340       -3.77235        0.68820
C        -15.92469       -1.75227        2.27554
N        -14.90360       -1.38244        1.86650
C        -18.97837       -3.07336        4.23674
C        -19.46611       -2.64626        5.47029
C        -18.65760       -1.53754        5.97993
O        -18.84236       -0.96920        7.03688
C        -20.51947       -3.24305        6.15863
C        -21.11588       -4.38382        5.57969
C        -20.61307       -4.84982        4.35876
C        -19.54467       -4.21501        3.68111
S        -21.44113       -6.27005        3.83462
C        -22.43710       -6.26199        5.19475
C        -22.18488       -5.22147        6.04944
Br       -23.74899       -7.56228        5.50025
H         -3.08411       -1.05692       -3.93842
H          1.67856        0.46803       -3.47417
H         -1.91122       -3.62212       -4.50247
H         -1.60182        4.25431       -1.13846
H         -4.31105        1.48618       -1.11632
H        -10.11646        3.49909        0.06699
H        -14.66887        6.75291        1.91804
H        -14.18552       10.90768        0.99646
H        -11.80305       10.52521        0.47096
H        -10.53575        3.89194        2.74154
H        -13.95479       -0.68746        5.29833
H        -16.93269        0.23210        6.24829
H        -20.84394       -2.85736        7.12180
H        -19.19218       -4.67808        2.76959
H        -22.72142       -5.05957        6.97632
