91

C         -7.00562       -2.54224        1.12341
C         -7.30515       -3.49857        0.21222
C         -7.10281       -4.88874        0.45485
N         -6.93127       -6.01715        0.65314
C         -7.90870       -3.18968       -1.04074
N         -8.40001       -2.94406       -2.06196
C         -6.50040       -2.76274        2.51325
C         -6.73694       -1.60255        3.25486
C         -6.36766       -1.43829        4.58399
C         -5.66413       -2.49428        5.20336
C         -5.40650       -3.65905        4.46340
C         -5.82669       -3.81969        3.11739
S         -4.51583       -4.80533        5.40317
C         -4.45452       -3.76623        6.73155
C         -5.10292       -2.57886        6.52364
Br        -3.57529       -4.19380        8.32936
C         -7.32258       -0.55261        2.40889
O         -7.76209        0.50754        2.80033
C         -7.25956       -1.08760        1.00866
C         -7.20257       -0.28995       -0.07235
C         -7.19603        1.18375       -0.04086
C         -8.37657        1.90836       -0.15346
C         -8.36147        3.31103       -0.12822
N         -9.63390        3.88473       -0.16062
C        -10.54870        2.96087       -0.32720
S        -10.00097        1.34860       -0.34216
C         -7.11254        4.00546       -0.07430
C         -5.92175        3.23070       -0.01805
C         -5.95544        1.82899        0.04457
N         -4.72379        1.19152        0.18803
C         -3.76854        2.08669        0.21216
S         -4.24732        3.70253       -0.04530
C         -7.11873        5.50681       -0.05104
C         -7.80596        6.33312       -0.97289
C         -7.89734        7.78870       -0.85057
N         -8.54246        8.49003       -1.80551
C         -9.21313        7.81367       -2.75735
C         -9.15943        6.44910       -2.84834
N         -8.40849        5.71439       -2.00910
C         -7.35091        8.52000        0.23395
C         -6.58194        7.72357        1.13785
C         -6.46131        6.22037        0.99129
N         -5.70160        5.67898        1.96177
S         -5.12039        6.90250        2.89524
N         -5.91308        8.17422        2.21633
C         -7.63320        9.96384        0.56497
C         -6.62591       10.88426        0.96060
C         -6.93827       12.11976        1.55193
N         -5.84005       12.86302        1.98527
C         -4.72636       12.23944        1.69589
S         -4.89214       10.78524        0.82987
C         -8.29083       12.49375        1.68088
C         -9.28438       11.69301        1.10088
C         -8.98458       10.42616        0.57393
N        -10.10207        9.73126        0.11380
C        -11.16318       10.49696        0.12725
S        -10.98138       12.00026        0.89838
C         -8.67306       13.78150        2.32772
C         -8.13335       14.44707        3.36302
C         -6.99113       14.19797        4.25118
C         -6.68652       13.04511        4.88260
C         -5.55932       12.90383        5.73751
N         -4.61746       12.79338        6.41609
C         -7.53046       11.89622        4.79315
N         -8.23437       10.97494        4.75931
C         -6.40588       15.53506        4.55819
C         -7.36764       16.50627        4.26859
C         -8.52234       15.88818        3.57789
O         -9.53184       16.45353        3.21600
C         -7.19677       17.85967        4.54526
C         -5.96826       18.26267        5.12566
C         -4.97340       17.29379        5.33797
C         -5.16686       15.92362        5.04717
S         -3.53897       18.00025        5.99227
C         -4.24990       19.52781        6.06531
C         -5.52466       19.55974        5.56508
Br        -3.37207       21.02709        6.76626
H         -6.56991       -0.50517        5.10323
H         -5.56902       -4.73557        2.59720
H         -5.16645       -1.78706        7.26049
H         -7.00675       -0.68635       -1.06477
H        -11.59668        3.20009       -0.44621
H         -2.73131        1.81452        0.36106
H         -9.80921        8.40971       -3.43754
H         -9.72254        5.89862       -3.59228
H         -3.75889       12.63403        1.98077
H        -12.10470       10.18674       -0.30677
H         -9.51082       14.27677        1.82645
H         -7.98139       18.57727        4.32204
H         -4.35502       15.22479        5.21545
H         -6.13121       20.45654        5.52221
