89

C          4.51720       -0.31083        0.27031
O          3.86703       -1.58346        0.39061
C          4.56148       -2.60220       -0.23414
C          4.70310       -2.62303       -1.67711
O          4.20135       -1.70738       -2.57171
C          3.11540       -0.83034       -2.35185
C          5.48979       -3.61199       -2.35650
C          5.61505       -3.71662       -3.83456
C          4.63510       -3.49119       -4.79134
C          5.12224       -3.67902       -6.12100
S          4.44047       -3.54943       -7.72159
C          5.94827       -4.00223       -8.43480
C          6.07239       -3.94977       -9.85244
C          5.66362       -4.90379      -10.70079
C          5.42484       -4.48150      -12.11917
O          5.90464       -3.54270      -12.71641
C          4.39034       -5.40113      -12.62726
C          3.74022       -5.30622      -13.84659
C          2.72103       -6.22897      -14.12873
C          2.06233       -6.10751      -15.40110
N          1.57708       -5.92605      -16.43889
C          2.36834       -7.20735      -13.16535
C          1.31306       -8.21350      -13.47162
O          1.10272       -8.61614      -14.60028
O          0.60940       -8.64474      -12.40629
C          3.06990       -7.28832      -11.93825
C          4.09619       -6.38840      -11.67261
C          5.07180       -6.23779      -10.55174
C          5.55359       -7.25526       -9.79732
C          6.79782       -7.16038       -9.11167
N          7.84960       -7.13426       -8.62588
C          4.95377       -8.54241       -9.77583
N          4.42020       -9.58022       -9.77199
C          6.92260       -4.24140       -7.48681
C          6.43329       -4.04093       -6.15999
S          7.12757       -4.11785       -4.56750
C          6.13970       -4.53327       -1.50048
N          6.97184       -5.54278       -1.80127
O          7.35812       -6.10931       -0.61518
N          6.74806       -5.49718        0.44780
C          5.95738       -4.53092       -0.05017
C          5.09170       -3.62425        0.62961
C          4.85447       -3.80730        2.09514
C          4.63100       -2.88567        3.10991
C          4.59054       -3.50124        4.41110
S          4.46350       -2.93990        6.06483
C          4.61621       -4.55515        6.67398
C          4.51977       -4.77452        8.08187
C          5.54618       -4.77749        8.94705
C          5.20543       -4.59495       10.39727
O          4.15714       -4.81963       10.96328
C          6.40082       -3.99068       11.01048
C          6.49802       -3.52931       12.31525
C          7.69768       -2.92825       12.71995
C          7.79667       -2.49576       14.07892
N          7.90134       -2.05072       15.14396
C          8.75226       -2.76501       11.79507
C         10.07437       -2.15070       12.11982
O         11.08367       -2.51773       11.53900
O         10.09915       -1.13801       13.00252
C          8.61885       -3.26871       10.47109
C          7.44457       -3.90100       10.07695
C          7.00362       -4.61601        8.83652
C          7.83454       -5.29079        8.00427
C          7.38311       -6.39260        7.22158
N          7.05819       -7.35678        6.65833
C          9.24439       -5.09508        7.98932
N         10.39132       -4.92371        7.96569
C          4.67073       -5.48009        5.65054
C          4.67194       -4.85803        4.36291
S          4.71744       -5.42972        2.72639
H          3.78719        0.41274       -0.10633
H          5.39130       -0.31326       -0.39078
H          4.82026        0.03541        1.26119
H          3.51315        0.18890       -2.31202
H          2.49940       -1.05522       -1.48177
H          2.46465       -0.86883       -3.23227
H          3.61807       -3.19867       -4.56201
H          6.39398       -2.98755      -10.25434
H          4.01921       -4.52835      -14.55638
H          0.76053       -8.22788      -11.54027
H          2.82516       -8.07441      -11.23222
H          7.94417       -4.52245       -7.71522
H          4.55417       -1.81839        2.95690
H          3.50260       -4.81687        8.47723
H          5.65606       -3.64061       12.99720
H          9.29496       -0.81822       13.45065
H          9.45885       -3.15245        9.78757
H          4.70879       -6.55371        5.79874
