87

C          0.27384       -2.08092       -1.76648
C         -0.25814       -1.19996       -0.67943
C         -0.39823        0.22382       -0.85662
C         -0.93986        0.86786        0.23917
C         -1.37703        2.33046        0.42691
C         -0.16777        3.16894        0.87668
N         -2.36152        2.35156        1.55904
N         -3.50932        2.86116        1.53276
C         -4.02040        3.78394        0.47319
C         -5.46827        3.30966        0.22646
C         -3.98324        5.23864        1.01856
S         -4.54290        6.52362        0.00160
C         -4.10288        7.75751        1.10412
C         -4.22569        9.11749        0.69699
C         -4.47572       10.17005        1.48901
C         -4.15545       11.51799        0.91910
O         -3.99752       11.83333       -0.24084
C         -3.97470       12.40536        2.07713
C         -3.53856       13.72029        2.01962
C         -3.35699       14.41154        3.22295
C         -2.90900       15.76649        3.14665
N         -2.63890       16.89310        3.14325
C         -3.61565       13.76739        4.45240
C         -3.40083       14.39303        5.79011
O         -3.05863       13.70576        6.73983
O         -3.66108       15.70462        5.92241
C         -4.04720       12.41086        4.46814
C         -4.25355       11.72849        3.27385
C         -4.77908       10.37291        2.91407
C         -5.64266        9.64232        3.66195
C         -6.46174        8.62199        3.08981
N         -7.18014        7.83419        2.63216
C         -5.89927        9.91679        5.03417
N         -6.08838       10.13463        6.15760
C         -3.59569        7.19530        2.25601
C         -3.55584        5.75579        2.24490
C         -3.06072        4.98961        3.43306
C         -3.20074        3.61767       -0.76301
N         -3.49985        4.05920       -1.98663
O         -2.41348        3.67379       -2.77261
N         -1.46258        2.98899       -2.01289
C         -1.99144        2.93307       -0.78818
S         -0.94422       -0.22060        1.56695
C         -0.70567       -1.61091        0.57390
C         -0.82026       -2.93532        1.11202
C         -1.68461       -3.32004        2.06440
C         -1.47462       -4.64055        2.76518
O         -0.84019       -5.59807        2.38079
C         -2.15135       -4.50166        4.07565
C         -2.22268       -5.43033        5.09917
C         -2.89524       -5.06183        6.28367
C         -3.08885       -6.08309        7.27194
N         -3.25416       -6.97955        7.99591
C         -3.38963       -3.74366        6.44013
C         -4.03817       -3.31146        7.70743
O         -3.74046       -3.78630        8.78702
O         -4.97136       -2.34513        7.57092
C         -3.25329       -2.81207        5.39509
C         -2.73234       -3.23355        4.17986
C         -2.72875       -2.62612        2.82907
C         -3.76852       -1.89879        2.34566
C         -4.02361       -1.76187        0.95068
N         -4.31297       -1.68767       -0.17081
C         -4.77280       -1.36389        3.20593
N         -5.54603       -0.96914        3.97801
H         -0.05341       -1.72092       -2.74773
H         -0.06212       -3.11541       -1.66153
H          1.36935       -2.06746       -1.74829
H         -0.15010        0.72942       -1.78425
H          0.27580        2.77562        1.79868
H         -0.45756        4.20840        1.07283
H          0.61688        3.18253        0.11051
H         -6.04115        3.26759        1.15996
H         -5.47472        2.29725       -0.20099
H         -6.01156        3.95410       -0.47275
H         -4.00475        9.30929       -0.35574
H         -3.33853       14.18471        1.05493
H         -3.96052       16.25525        5.17536
H         -4.20045       11.93073        5.43380
H         -3.22835        7.78191        3.08965
H         -2.81772        5.66397        4.26178
H         -2.14565        4.44293        3.19244
H         -3.82566        4.29484        3.79332
H         -0.10082       -3.66626        0.74106
H         -1.80112       -6.42482        4.96933
H         -5.27143       -2.08456        6.67843
H         -3.55293       -1.77856        5.53723
