137

C         -2.69429       -5.77721        5.10355
C         -2.97571       -4.58336        5.81964
C         -2.57243       -4.59395        7.25036
O         -1.60655       -5.25311        7.60573
O         -3.32492       -3.90736        8.12497
C         -3.51500       -3.46454        5.13849
C         -3.83551       -2.24838        5.81427
N         -4.16707       -1.32127        6.43381
C         -3.72553       -3.50493        3.74695
C         -3.40716       -4.68654        3.08506
C         -2.94555       -5.82916        3.74395
C         -2.76418       -6.88458        2.72067
C         -2.99909       -8.20656        2.88866
C         -3.28165       -8.75719        4.16972
N         -3.52311       -9.16517        5.22778
C         -3.14223       -9.09631        1.78221
N         -3.31993       -9.81941        0.89271
C         -2.64566       -6.18328        1.44145
C         -3.34368       -4.87038        1.61882
O         -3.68264       -4.07239        0.77209
C         -1.81500       -6.32428        0.39793
C         -0.71718       -7.23267        0.39164
C          0.08449       -7.67169        1.42432
C          1.09515       -8.62811        1.04541
C          1.95189       -9.45170        1.82066
C          1.72964       -9.59130        3.29671
C          2.63672       -9.70048        4.34580
C          2.02355       -9.83562        5.63057
C          0.65102       -9.78284        5.56448
S          0.13114       -9.74883        3.93877
C         -0.33800       -9.79147        6.68705
Cl         2.93642      -10.02111        7.06758
C          2.98181      -10.17755        1.18200
C          3.25805      -10.01878       -0.18537
C          2.36049       -9.23773       -0.96808
C          1.23881       -8.63248       -0.34834
S         -0.15339       -7.88029       -1.07152
C          2.59241       -9.09315       -2.43909
C          3.10562       -9.99279       -3.36624
C          3.13450       -9.49011       -4.70341
C          2.55099       -8.24904       -4.80349
S          2.30058       -7.58711       -3.25010
C          2.19752       -7.46460       -6.02431
Cl         3.77258      -10.39710       -6.00682
C          4.48640      -10.71361       -0.52152
C          5.02165      -11.48353        0.49276
S          4.00704      -11.38933        1.85717
C          6.21843      -12.35820        0.49111
C          6.61324      -13.13726       -0.62195
C          7.79092      -13.98503       -0.59915
N          8.12741      -14.69631       -1.69990
C          7.34431      -14.59920       -2.79584
C          6.22656      -13.80250       -2.81528
N          5.85319      -13.07549       -1.74021
F          5.47067      -13.72071       -3.91889
F          7.68570      -15.31368       -3.87710
C          8.61987      -14.09662        0.54046
C          8.23817      -13.34277        1.69031
C          7.04010      -12.43866        1.65498
N          6.89191      -11.75146        2.80280
S          8.05783      -12.25159        3.85197
N          8.83874      -13.33931        2.89445
C          9.84831      -14.92282        0.58122
C         10.10570      -16.16813        0.04691
C         11.46627      -16.66133        0.22201
C         12.14012      -17.82872       -0.25943
C         11.42055      -18.82531       -1.13050
C         11.52726      -20.21325       -1.19348
C         10.58854      -20.83540       -2.07673
C          9.75323      -19.92131       -2.67396
S         10.28060      -18.33023       -2.33793
C          8.55256      -20.14738       -3.53790
Cl        10.52299      -22.53466       -2.28374
C         13.49383      -18.05679        0.11942
C         14.14963      -17.23463        1.05329
C         13.48835      -16.06284        1.50618
C         12.18408      -15.76863        1.03592
S         11.27758      -14.31154        1.25532
C         14.23763      -15.09253        2.37378
C         15.57849      -14.72265        2.34055
C         15.91256      -13.67172        3.24734
C         14.81285      -13.20575        3.92876
S         13.48241      -14.25450        3.69165
C         14.69908      -12.00052        4.80609
Cl        17.49981      -13.04348        3.37429
C         15.43850      -17.79122        1.40766
C         15.82198      -18.87968        0.66094
S         14.60773      -19.25490       -0.47607
C         17.03129      -19.63214        0.68441
C         17.12280      -20.81963        1.30259
C         18.19380      -21.80339        0.90293
O         19.26544      -21.57429        0.41031
C         17.58558      -23.13633        1.15444
C         16.30677      -22.98315        1.71099
C         15.46534      -24.07831        1.84491
C         15.95747      -25.35990        1.53500
C         17.30116      -25.51655        1.10485
C         18.11181      -24.38315        0.87687
C         17.90024      -26.80495        0.88466
N         18.46364      -27.79986        0.68890
C         15.07754      -26.54135        1.76184
O         15.51319      -27.62778        2.09131
O         13.76005      -26.31884        1.57704
C         16.16291      -21.56702        2.11403
C         15.59907      -21.17358        3.28291
C         15.88589      -19.91073        3.87185
N         16.15973      -18.91287        4.39489
C         14.86639      -22.07703        4.10489
N         14.28668      -22.85946        4.73392
H         -2.23603       -6.61580        5.62808
H         -4.11703       -3.41321        7.84415
H         -4.08454       -2.65302        3.19581
H         -1.87862       -5.61962       -0.43298
H         -0.05210       -7.34335        2.44553
H          3.71203       -9.69575        4.21672
H         -0.09212      -10.56223        7.42418
H         -1.35311       -9.99655        6.34314
H         -0.34577       -8.82080        7.19682
H          3.43759      -10.99228       -3.11651
H          3.05544       -6.88777       -6.38076
H          1.36796       -6.77285       -5.83676
H          1.87166       -8.13057       -6.83206
H          4.94813      -10.66929       -1.49926
H          9.33406      -16.69265       -0.49771
H         12.22524      -20.79228       -0.60506
H          8.61914      -21.09186       -4.08766
H          8.42372      -19.34833       -4.27512
H          7.64548      -20.18587       -2.92205
H         16.30348      -15.15242        1.66227
H         15.38353      -12.06855        5.65722
H         13.68554      -11.85638        5.19446
H         14.95688      -11.09724        4.23818
H         16.07390      -17.38466        2.18502
H         17.83881      -19.29449        0.03454
H         14.45987      -23.94860        2.23246
H         19.13197      -24.47961        0.50864
H         13.46616      -25.46156        1.22353
