127

C          0.17305       -1.22142       -0.15157
C         -0.10512       -0.06626        0.51125
C         -1.48397        0.43920        0.39739
C         -2.09416        1.49829        0.98588
C         -1.45819        2.35710        1.93224
N         -0.97238        3.05673        2.71149
C         -3.46303        1.81447        0.72497
N         -4.57463        2.07671        0.50877
S         -2.35897       -0.62546       -0.70100
C         -1.00281       -1.71086       -0.90866
O         -1.04868       -2.71752       -1.59097
C          0.90036        0.65442        1.21893
N          1.71402        1.24570        1.78612
C          1.41938       -1.91976       -0.17696
C          2.06741       -2.54127       -1.22332
C          3.33380       -3.18354       -0.88687
C          4.24242       -3.92658       -1.68295
C          3.91391       -4.23204       -3.10625
C          4.71106       -4.16023       -4.24282
C          4.04276       -4.56231       -5.43916
C          2.72000       -4.86480       -5.21221
S          2.37178       -4.88160       -3.54068
C          1.66530       -5.19667       -6.21360
C          5.45712       -4.39452       -1.13511
C          5.82149       -4.12732        0.19690
C          4.89645       -3.40740        1.04009
C          3.65049       -2.98351        0.46743
S          2.28388       -2.25144        1.24107
C          5.20196       -3.10746        2.51250
C          4.50649       -2.37432        3.47885
C          5.08503       -2.35841        4.78789
C          6.27431       -3.03147        4.82114
S          6.62517       -3.69271        3.30899
C          7.20573       -3.23951        5.96278
C          7.13675       -4.69625        0.42611
C          7.73048       -5.35629       -0.62405
S          6.65292       -5.38361       -1.92638
C          9.04617       -6.03233       -0.65737
C          9.55283       -6.80519        0.40976
C         10.84268       -7.46691        0.35359
N         11.25017       -8.18623        1.42290
C         10.45574       -8.27153        2.50954
C          9.24113       -7.64206        2.55785
N          8.78348       -6.91802        1.51721
F          8.47705       -7.72457        3.65521
F         10.89151       -8.99360        3.55116
C         11.70074       -7.39472       -0.77768
C         11.22536       -6.57197       -1.85828
C          9.89095       -5.87614       -1.78654
N          9.64190       -5.11753       -2.87023
S         10.88984       -5.31085       -3.92101
N         11.83936       -6.30267       -3.02476
C         13.01544       -8.12117       -0.86495
C         13.67357       -8.94140        0.04449
C         14.91068       -9.55527       -0.41845
C         15.78295      -10.54228        0.13728
C         15.43551      -11.22761        1.41277
C         16.25651      -11.60255        2.46988
C         15.55106      -12.16884        3.57396
C         14.19219      -12.17595        3.36291
S         13.82019      -11.73633        1.75619
C         13.10782      -12.51091        4.32982
C         17.01407      -10.83444       -0.50300
C         17.43880      -10.07962       -1.59848
C         16.53393       -9.17686       -2.20107
C         15.27023       -8.97063       -1.63241
S         13.96806       -8.07324       -2.27540
C         16.93108       -8.41855       -3.42003
C         16.71878       -7.08757       -3.75840
C         17.35315       -6.70140       -4.97746
C         18.09267       -7.72999       -5.51366
S         17.70714       -9.20582       -4.74649
C         19.07190       -7.67193       -6.63650
C         18.82465      -10.33810       -1.86805
C         19.36400      -11.44687       -1.26113
S         18.18291      -12.08861       -0.18978
C         20.64865      -12.07687       -1.35989
C         21.79426      -11.46420       -1.70288
C         23.11871      -12.10046       -1.37633
O         23.37425      -13.27918       -1.26313
C         24.04124      -10.95939       -1.14527
C         25.36244      -11.00489       -0.74219
C         26.00993       -9.78654       -0.48115
C         25.28099       -8.55669       -0.56129
C         25.91411       -7.35373       -0.22518
C         27.25722       -7.35162        0.13120
C         27.98215       -8.53492        0.15529
C         27.36863       -9.75013       -0.13746
F         29.28590       -8.51749        0.46323
F         27.84909       -6.18979        0.43906
C         23.95072       -8.54754       -1.00617
C         23.36431       -9.74755       -1.36200
C         22.11173      -10.08606       -2.06761
C         21.78486       -9.47546       -3.23351
C         21.15957      -10.21780       -4.28139
N         20.70258      -10.85285       -5.13500
C         22.18237       -8.14512       -3.54630
N         22.49364       -7.04792       -3.76522
H          1.64168       -2.54790       -2.22037
H          5.74764       -3.84469       -4.23375
H          4.50397       -4.58807       -6.42002
H          1.81438       -4.61618       -7.13170
H          0.66181       -4.96096       -5.84309
H          1.70016       -6.25881       -6.47308
H          3.58406       -1.84335        3.32504
H          4.64413       -1.86256        5.64431
H          7.00985       -2.52031        6.76432
H          8.24959       -3.11478        5.65399
H          7.08460       -4.24811        6.37108
H          7.67856       -4.65916        1.35250
H         13.27935       -9.14617        1.02849
H         17.32838      -11.45283        2.48512
H         16.01772      -12.49340        4.49676
H         13.47860      -13.16963        5.12217
H         12.26298      -13.00901        3.84497
H         12.73903      -11.59416        4.80516
H         16.15910       -6.38949       -3.14845
H         17.32999       -5.69995       -5.39091
H         18.56547       -7.69522       -7.60471
H         19.79128       -8.49579       -6.59801
H         19.65261       -6.74335       -6.57485
H         19.35552       -9.72257       -2.56393
H         20.71383      -13.10947       -1.01091
H         25.86909      -11.96125       -0.64283
H         25.38125       -6.40645       -0.24851
H         27.96847      -10.65575       -0.10483
H         23.40855       -7.60930       -1.09600
