97

C          2.83572       -6.41351        4.63491
C          3.04141       -7.13636        5.75751
C          1.88701       -7.27868        6.66270
C          1.75650       -7.92083        7.85185
C          2.81376       -8.63069        8.48971
N          3.65169       -9.21143        9.04092
C          0.52198       -7.92514        8.57406
N         -0.47521       -7.93009        9.17112
S          0.52934       -6.41251        5.94636
C          1.44125       -5.92303        4.53341
O          0.96427       -5.27165        3.62296
C          4.30239       -7.73450        6.02991
N          5.31990       -8.23344        6.27115
C          3.80526       -6.15843        3.61992
C          4.69176       -5.08663        3.47816
C          5.40487       -5.19835        2.27286
C          5.10101       -6.31363        1.52470
S          3.95004       -7.27520        2.28271
C          5.72144       -6.39092        0.23411
C          6.53112       -5.33712       -0.11726
Si         6.60328       -4.13009        1.30381
C          5.97403       -2.43639        0.90201
C          8.29366       -3.98705        2.05133
C          6.95610       -5.35937       -1.45263
C          6.38812       -6.43998       -2.14495
S          5.58654       -7.50162       -1.01023
C          6.27904       -6.63742       -3.62405
C          5.24463       -7.35601       -4.28463
C          4.88524       -7.08977       -5.66003
N          3.88706       -7.78558       -6.25215
C          3.23312       -8.71731       -5.53190
C          3.56335       -8.97423       -4.22801
N          4.55403       -8.30200       -3.60722
F          2.90780       -9.91522       -3.53440
F          2.24346       -9.39565       -6.12851
C          5.52870       -6.09575       -6.42463
C          6.74025       -5.57723       -5.89348
C          7.13442       -5.87198       -4.47177
N          8.31185       -5.30691       -4.14448
S          8.86401       -4.48913       -5.46589
N          7.61709       -4.76337       -6.50995
C          4.95625       -5.46974       -7.63834
C          5.56887       -4.93749       -8.77637
C          4.63524       -4.22772       -9.54820
C          3.36045       -4.21952       -9.03612
S          3.23837       -5.11686       -7.63287
C          2.43786       -3.32123       -9.65222
C          2.93846       -2.51748      -10.65118
Si         4.67315       -3.09922      -11.04040
C          6.01119       -1.86769      -11.21773
C          4.61733       -4.18664      -12.57890
C          2.09512       -1.44418      -10.97940
C          0.92087       -1.49186      -10.22045
S          0.83580       -2.98737       -9.31912
C         -0.16732       -0.56838      -10.20803
C         -0.96325       -0.30181       -9.16087
C         -2.29367        0.31387       -9.49182
O         -2.59402        0.97474      -10.45968
C         -3.20060       -0.13547       -8.42003
C         -4.57909        0.00955       -8.41523
C         -5.29784       -0.56769       -7.36322
C         -4.60638       -1.29084       -6.34396
C         -5.34412       -1.86785       -5.29902
C         -6.72930       -1.73581       -5.26236
C         -7.39789       -1.03819       -6.25785
C         -6.69412       -0.45555       -7.30652
F         -8.73188       -0.91881       -6.21866
F         -7.41386       -2.29056       -4.25291
C         -3.20210       -1.42042       -6.39179
C         -2.49037       -0.82217       -7.42486
C         -1.03967       -0.73221       -7.75517
C         -0.02283       -0.78007       -6.85734
C          1.29907       -0.34672       -7.18298
N          2.36808        0.04342       -7.40420
C         -0.20886       -1.17165       -5.50031
N         -0.36835       -1.50788       -4.40030
H          4.77091       -4.26591        4.18143
H          6.59851       -1.94595        0.14825
H          5.96140       -1.79808        1.79076
H          4.95326       -2.47891        0.50907
H          8.68696       -4.96697        2.33849
H          8.27858       -3.35638        2.94535
H          9.00021       -3.54123        1.34315
H          7.52480       -4.56566       -1.92336
H          6.63313       -4.99834       -8.96950
H          6.03102       -1.16161      -10.38201
H          5.89715       -1.28143      -12.13582
H          6.99442       -2.34743      -11.26312
H          3.87279       -4.98040      -12.45816
H          5.58948       -4.65585      -12.75515
H          4.34857       -3.59826      -13.46066
H          2.32676       -0.63889      -11.66791
H         -0.40084       -0.11473      -11.17273
H         -5.07086        0.54416       -9.22367
H         -4.85665       -2.42180       -4.50023
H         -7.25018        0.08137       -8.07045
H         -2.70535       -2.00281       -5.62163
