75

C         -0.85929       -6.22295        4.67914
C         -0.12872       -5.61826        3.66534
C         -0.63997       -4.39315        3.05038
O         -1.36166       -3.60244        3.64120
O         -0.32870       -4.21755        1.74168
C          1.06250       -6.38661        3.38085
C          1.10856       -7.55355        4.12288
S         -0.19474       -7.69702        5.21368
C          2.18452       -6.04164        2.43286
C          2.60507       -4.74954        2.12134
C          3.66365       -4.77624        1.18277
C          4.00814       -6.06827        0.85690
S          3.11721       -7.24751        1.60879
C          5.07397       -6.04013       -0.06163
C          5.40360       -4.73214       -0.33028
C          4.52785       -3.84902        0.44573
C          4.51270       -2.50213        0.46634
C          3.59662       -1.78024        1.27964
N          2.84537       -1.20559        1.95204
C          5.40342       -1.73150       -0.33334
N          6.12897       -1.11365       -0.99389
C          6.46810       -4.65277       -1.25930
C          6.89373       -5.92576       -1.65763
S          5.99265       -7.17335       -0.84328
C          7.95700       -6.26567       -2.58376
C          8.09116       -7.36875       -3.40507
C          9.34293       -7.38244       -4.14287
N          9.71573       -8.39973       -4.97865
C          8.75949       -9.37802       -5.03265
C          9.08818      -10.59095       -5.83777
O         10.03673      -10.67460       -6.60089
C          8.20970      -11.77526       -5.57422
C          6.91188      -11.42988       -5.63326
C          6.55103      -10.44849       -4.56332
O          5.48109      -10.53471       -3.98132
C          7.53627       -9.34656       -4.34856
N          7.14632       -8.34865       -3.50967
C         10.11551       -6.26462       -3.89772
S          9.31911       -5.23476       -2.76384
C         11.40266       -5.90567       -4.46070
C         11.90088       -6.21415       -5.73105
C         13.21106       -5.71194       -5.90600
C         13.63836       -5.03342       -4.78915
S         12.56526       -4.99894       -3.52997
C         14.95096       -4.57431       -5.00276
C         15.37734       -4.99313       -6.24040
C         14.27970       -5.69879       -6.91012
C         14.24758       -6.18235       -8.16688
C         13.08105       -6.80534       -8.69722
N         12.12966       -7.29480       -9.13243
C         15.36184       -6.06398       -9.04094
N         16.27749       -5.96055       -9.74580
C         16.72824       -4.64040       -6.45907
C         17.25639       -3.93266       -5.37198
S         16.03798       -3.65073       -4.16267
C         18.61375       -3.43870       -5.21011
C         19.40443       -3.29970       -4.06476
C         19.06534       -3.67908       -2.68753
O         19.50808       -3.09192       -1.70920
O         18.30207       -4.78876       -2.54786
C         20.68061       -2.69894       -4.39156
C         20.83457       -2.44657       -5.73193
S         19.45884       -2.89980       -6.61814
H         -1.78782       -5.86992        5.11185
H          0.15559       -4.96927        1.35671
H          1.87526       -8.31739        4.13137
H          2.17911       -3.85979        2.57230
H          6.91105       -3.74028       -1.64057
H          8.58043      -12.26073       -4.66720
H          6.49409      -11.06979       -6.57576
H         11.33142       -6.77949       -6.46089
H         17.31493       -4.88866       -7.33649
H         18.02875       -5.17419       -3.39928
H         21.45540       -2.48759       -3.66194
H         21.69251       -2.01779       -6.23344
