110

C         -0.37099        1.45187       -0.40990
N          0.66430        0.70789       -0.82321
C          0.48279       -0.62715       -0.69038
C         -0.67288       -1.19559       -0.17556
N         -1.66690       -0.39037        0.24466
N         -1.51505        0.96767        0.11893
C         -0.90959       -2.63523       -0.08246
C         -1.65806       -3.36753        0.81250
C         -1.66954       -4.80576        0.55051
C         -0.73795       -5.14216       -0.44856
S         -0.31607       -3.67171       -1.27190
C         -0.32240       -6.50309       -0.71415
C          0.76259       -6.86490       -1.76089
C          1.58395       -5.92361       -2.42220
C          2.55130       -6.23823       -3.40002
C          2.82321       -7.55387       -3.72517
C          2.06532       -8.53011       -3.09608
C          1.03422       -8.18274       -2.19058
C          3.88035       -7.90757       -4.72728
C         -1.01130       -7.52960        0.04194
C         -2.12041       -7.18729        0.81768
C         -2.43365       -5.84026        1.15200
C         -3.53674       -5.49463        2.11309
C         -3.75401       -6.21780        3.30368
C         -4.80673       -5.92192        4.18164
C         -5.65227       -4.83737        3.94636
C         -5.43923       -4.07963        2.79143
C         -4.42376       -4.42326        1.88464
C         -6.76519       -4.50122        4.88225
S         -3.04434       -8.60687        1.21206
C         -1.79115       -9.67845        0.79979
C         -0.74357       -8.95362        0.26537
C         -1.95217      -11.12038        1.01211
C         -2.62205      -11.69857        2.09955
N         -2.85763      -13.03041        2.34278
C         -2.44161      -14.00293        1.47376
C         -1.72079      -13.58471        0.31965
C         -1.46663      -12.09116        0.09353
N         -0.77755      -11.86042       -1.03951
S         -0.47410      -13.32897       -1.74007
N         -1.19663      -14.34898       -0.65704
C         -2.76407      -15.39846        1.78233
C         -3.04753      -16.46096        0.95182
C         -3.25219      -17.73786        1.62386
C         -3.10830      -17.59035        3.01081
S         -2.91046      -15.90264        3.39938
C         -3.16955      -18.69951        3.91292
C         -2.95787      -18.51948        5.39570
C         -3.74526      -19.17522        6.36265
C         -3.53289      -19.01792        7.74437
C         -2.56541      -18.12985        8.22138
C         -1.79260      -17.44269        7.28952
C         -1.95763      -17.66983        5.91364
C         -2.38686      -17.91499        9.69040
C         -3.43786      -20.00232        3.38065
C         -3.64121      -20.13381        1.99974
C         -3.55101      -19.03237        1.10256
C         -3.74640      -19.21976       -0.37641
C         -4.82630      -19.95579       -0.90654
C         -4.97069      -20.19226       -2.28324
C         -4.08751      -19.62017       -3.19761
C         -3.02974      -18.85634       -2.70426
C         -2.84619      -18.69260       -1.32088
C         -4.25185      -19.86666       -4.66851
S         -3.96155      -21.78949        1.59030
C         -3.89975      -22.34418        3.18969
C         -3.53123      -21.30851        4.02339
C         -4.19330      -23.74730        3.49472
N         -4.18479      -24.63730        2.48088
C         -4.46138      -25.90824        2.82896
C         -4.74279      -26.27757        4.12099
N         -4.75042      -25.35881        5.10200
N         -4.46503      -24.06183        4.78237
H         -0.28768        2.52596       -0.51045
H          1.31777       -1.23024       -1.02140
H         -2.20245       -2.89515        1.62218
H          1.53322       -4.86576       -2.23223
H          3.08623       -5.42614       -3.88907
H          2.24219       -9.58143       -3.31620
H          0.43709       -9.02434       -1.87203
H          4.36075       -7.01244       -5.13827
H          3.43980       -8.45983       -5.56357
H          4.65999       -8.51865       -4.26157
H         -3.10305       -7.04587        3.57353
H         -4.96045       -6.55342        5.05660
H         -6.06653       -3.21478        2.58689
H         -4.33898       -3.81795        0.98290
H         -6.75252       -5.13342        5.77777
H         -7.73707       -4.64247        4.39033
H         -6.68906       -3.45903        5.21753
H          0.17651       -9.45089       -0.00165
H         -3.02983      -11.06191        2.88399
H         -3.09465      -16.33651       -0.12258
H         -4.55661      -19.83502        6.06226
H         -4.14078      -19.58626        8.44501
H         -1.04883      -16.71984        7.61997
H         -1.28073      -17.14025        5.24790
H         -2.20500      -18.86153       10.20443
H         -3.28429      -17.44344       10.11765
H         -1.53716      -17.25403        9.90318
H         -5.57676      -20.39014       -0.24921
H         -5.78276      -20.82830       -2.63072
H         -2.32621      -18.38809       -3.38912
H         -1.97087      -18.13511       -0.99440
H         -5.29703      -19.73079       -4.96667
H         -3.94029      -20.88603       -4.91848
H         -3.65045      -19.16901       -5.26101
H         -3.35997      -21.47944        5.07951
H         -4.44633      -26.63115        2.02053
H         -4.96172      -27.29838        4.40234
