48

C          1.05117        0.03882        0.19791
N          2.43656        0.04257       -0.19774
C          3.17258        1.19440       -0.42217
O          2.78976        2.34926       -0.34796
C          4.48703        0.72371       -0.79654
C          5.69134        1.26958       -1.16326
C          6.13081        2.66272       -1.28557
C          7.11388        3.09473       -2.16725
C          7.46123        4.44674       -2.19610
C          6.81096        5.32783       -1.34592
C          7.12580        6.76702       -1.33179
N          8.06983        7.33252       -2.07560
C          8.09839        8.66724       -1.80490
S          9.08188        9.96936       -2.39753
C          8.18519       11.02403       -1.35862
N          7.23395       10.48434       -0.62349
C          7.20488        9.14831       -0.89182
S          6.23252        7.85018       -0.29559
N          5.86310        4.88008       -0.49414
N          5.52326        3.53960       -0.46304
S          6.80194       -0.02526       -1.48034
C          5.65038       -1.28087       -1.15156
C          6.04971       -2.68504       -1.28070
C          5.50845       -3.71324       -0.52600
C          5.95523       -5.01832       -0.73662
C          6.93500       -5.25074       -1.68956
C          7.44699       -6.60362       -1.95927
N          6.99718       -7.70243       -1.36669
C          7.68601       -8.77161       -1.85091
S          7.60014      -10.47396       -1.52391
C          8.88361      -10.68411       -2.66553
N          9.34964       -9.60371       -3.25938
C          8.65349       -8.53347       -2.78416
S          8.72778       -6.84015       -3.12058
N          7.45091       -4.22969       -2.40657
N          7.00428       -2.94280       -2.20201
C          4.46738       -0.69060       -0.79086
C          3.14507       -1.12440       -0.41271
O          2.75459       -2.27314       -0.30673
H          0.68332        1.05383        0.36512
H          0.94804       -0.55031        1.11421
H          0.46128       -0.44507       -0.58649
H          7.61447        2.40640       -2.84041
H          8.22927        4.79897       -2.87920
H          8.40737       12.08356       -1.32305
H          4.75118       -3.53167        0.22793
H          5.53753       -5.83825       -0.15892
H          9.27864      -11.67021       -2.87534
