93

C          1.39921       -1.35530        0.35516
C          1.93469       -1.93014        1.45761
C          2.02747       -1.24215        2.69672
N          2.10045       -0.66543        3.70390
C          2.52094       -3.23382        1.42912
N          3.00940       -4.28585        1.41869
C          0.97458        0.05521        0.19238
C          1.11352        0.39653       -1.16701
C          0.77447        1.63991       -1.67148
C          0.23260        2.56906       -0.78027
C          0.03719        2.23083        0.57715
C          0.41349        0.96979        1.06900
Cl        -0.71324        3.31824        1.69277
Cl        -0.23136        4.10619       -1.41811
C          1.47786       -0.79964       -1.95803
O          1.70313       -0.84568       -3.14720
C          1.35164       -1.93566       -0.98815
C          0.86755       -3.09676       -1.45356
C          0.16902       -4.03397       -0.63532
C         -0.71082       -3.81620        0.43521
C         -1.22646       -5.02598        0.94103
C         -0.76116       -6.09689        0.21852
S          0.28774       -5.72732       -1.01168
C         -1.37008       -7.26656        0.70511
C         -2.23653       -6.94488        1.72215
C         -2.14920       -5.50525        1.97678
C         -2.71673       -4.79362        2.96993
C         -3.55260       -5.40065        3.94679
N         -4.23316       -5.88906        4.74962
C         -2.45515       -3.40021        3.11716
N         -2.20765       -2.27274        3.21185
C         -2.93584       -8.08894        2.17473
C         -2.56769       -9.24016        1.45865
S         -1.25817       -8.87584        0.35918
C         -3.08537      -10.63146        1.54886
C         -3.51489      -11.23048        2.75297
C         -4.02823      -12.58284        2.80790
N         -4.39351      -13.09168        4.00468
C         -4.31841      -12.32439        5.10665
C         -3.84359      -11.04515        5.04975
N         -3.43202      -10.49852        3.88894
C         -4.15957      -13.40465        1.65881
C         -3.71857      -12.83675        0.43011
C         -3.19015      -11.43162        0.37010
N         -2.87986      -11.06981       -0.88895
S         -3.10555      -12.36750       -1.87220
N         -3.72057      -13.43101       -0.77785
C         -4.71032      -14.78940        1.63800
C         -4.39051      -15.86345        0.79275
C         -5.11280      -17.02824        1.12108
C         -5.92979      -16.82427        2.20809
S         -5.97888      -15.26105        2.74984
C         -6.48929      -18.06021        2.59471
C         -6.03858      -19.03205        1.73444
C         -5.20516      -18.42610        0.70401
C         -4.70260      -19.01255       -0.39975
C         -4.94810      -20.38043       -0.70468
N         -5.16415      -21.49059       -0.97144
C         -3.95532      -18.27582       -1.35578
N         -3.35139      -17.68005       -2.14696
C         -6.45109      -20.31628        2.12806
C         -7.17334      -20.28501        3.31972
S         -7.43499      -18.62435        3.83567
C         -7.72112      -21.31840        4.13917
C         -7.16667      -22.51716        4.39687
C         -7.68647      -23.60611        5.27845
C         -8.50055      -23.47389        6.35822
C         -8.82987      -24.56591        7.21325
N         -9.08972      -25.45202        7.91302
C         -9.03840      -22.22302        6.78408
N         -9.47984      -21.20906        7.13049
C         -6.95675      -24.85608        4.89278
C         -5.90370      -24.50265        4.04162
C         -5.91330      -23.06631        3.76579
O         -5.03037      -22.50826        3.15141
C         -4.99623      -25.40639        3.50697
C         -5.15563      -26.75010        3.82768
C         -6.21828      -27.14984        4.65964
C         -7.12171      -26.20435        5.18945
Cl        -6.48144      -28.81083        5.06326
Cl        -4.02760      -27.87050        3.15538
H          0.88088        1.85762       -2.73045
H          0.21277        0.72062        2.10765
H          0.87164       -3.28508       -2.52830
H         -0.96999       -2.82731        0.79116
H         -3.68948       -8.10363        2.95400
H         -4.65929      -12.77776        6.03006
H         -3.77899      -10.41812        5.93131
H         -3.64520      -15.79754        0.00969
H         -6.18502      -21.23373        1.62135
H         -8.66626      -21.04779        4.59861
H         -4.20119      -25.06455        2.84930
H         -7.93453      -26.56926        5.80937
