101

C          1.71783       -1.23826        1.76658
C          1.32232        0.03005        1.34353
F          2.24256        0.99600        1.21943
C         -0.00736        0.29580        1.05007
F         -0.37827        1.51228        0.62829
C         -0.96964       -0.69482        1.19458
C         -0.59746       -1.97150        1.63785
C          0.77193       -2.26633        1.91227
C          1.15359       -3.57128        2.31692
C          0.18823       -4.55922        2.47854
C         -1.14477       -4.21017        2.23599
C         -1.56366       -2.95906        1.81337
C         -2.02399       -5.35678        2.45121
O         -3.22077       -5.27465        2.62389
C         -1.12448       -6.55645        2.50527
C          0.22240       -6.01442        2.84014
C          1.22246       -6.65701        3.49117
C          1.11330       -8.01653        3.90860
N          1.02864       -9.12456        4.23569
C          2.43200       -6.00823        3.86983
N          3.41425       -5.47358        4.17525
C         -1.47788       -7.80275        2.13287
C         -2.75321       -8.17181        1.59314
C         -3.64833       -7.44589        0.83153
C         -4.83147       -8.15175        0.46656
C         -4.78153       -9.47641        0.87835
S         -3.33758       -9.78626        1.76816
C         -5.81562      -10.36124        0.54260
C         -6.91847       -9.93174       -0.22451
C         -6.98582       -8.58785       -0.56752
C         -5.95934       -7.71094       -0.23444
S         -8.43557       -8.21462       -1.39167
C         -8.87444       -9.86586       -1.56569
C         -8.03213      -10.64881       -0.78775
C        -10.03100      -10.25926       -2.40799
C        -10.92015      -11.30287       -2.07307
C        -12.02341      -11.69759       -2.93177
N        -12.83381      -12.71130       -2.54975
C        -12.58327      -13.33320       -1.37750
C        -11.54120      -12.95716       -0.56748
N        -10.71360      -11.94738       -0.90280
F        -11.30766      -13.60328        0.58303
F        -13.37888      -14.35213       -1.02482
C        -12.28994      -11.06214       -4.16828
C        -11.38722      -10.02735       -4.55790
C        -10.24599       -9.61891       -3.66621
N         -9.50205       -8.64226       -4.21792
S        -10.17615       -8.23341       -5.66095
N        -11.40186       -9.32829       -5.70770
C        -13.40580      -11.44884       -5.07056
C        -13.93721      -12.70221       -5.33269
C        -14.99069      -12.70154       -6.31284
C        -15.25167      -11.41547       -6.76703
S        -14.30101      -10.25988       -5.93481
C        -16.20467      -11.17661       -7.76307
C        -16.94895      -12.22620       -8.32595
C        -16.69333      -13.51218       -7.86465
C        -15.74367      -13.75108       -6.86484
S        -17.66184      -14.66609       -8.67704
C        -18.40718      -13.48500       -9.69537
C        -17.98519      -12.22157       -9.32925
C        -19.35405      -13.96754      -10.63903
C        -19.66084      -13.53363      -11.87161
C        -20.83140      -14.26518      -12.47446
O        -21.40689      -15.24861      -12.05344
C        -21.18190      -13.55787      -13.70287
C        -22.16247      -13.97055      -14.59520
C        -22.29866      -13.27194      -15.79388
C        -21.47685      -12.13486      -16.03739
C        -21.60045      -11.46443      -17.26502
C        -22.49593      -11.92097      -18.22934
C        -23.29154      -13.03049      -17.98477
C        -23.20714      -13.70307      -16.77143
F        -24.13905      -13.47482      -18.92274
F        -22.57001      -11.28601      -19.40686
C        -20.52299      -11.72554      -15.07416
C        -20.33907      -12.45908      -13.90412
C        -19.28625      -12.46418      -12.82019
C        -18.11937      -11.77934      -12.91352
C        -16.93472      -12.17743      -12.23672
N        -15.91942      -12.49484      -11.76853
C        -17.93937      -10.65427      -13.77603
N        -17.80412       -9.72254      -14.45105
H          2.76987       -1.40321        1.98454
H         -2.00357       -0.45499        0.95950
H          2.20887       -3.77210        2.47885
H         -2.61787       -2.77833        1.61864
H         -0.74637       -8.60612        2.15068
H         -3.49567       -6.41572        0.53935
H         -5.75495      -11.40212        0.85301
H         -6.02130       -6.66746       -0.53604
H         -8.15712      -11.71853       -0.67019
H        -13.57501      -13.61022       -4.86417
H        -16.36475      -10.16059       -8.11617
H        -15.57436      -14.76792       -6.51665
H        -18.35918      -11.31079       -9.77817
H        -19.90642      -14.84048      -10.27849
H        -22.76061      -14.85132      -14.37369
H        -20.98591      -10.59890      -17.50103
H        -23.83678      -14.57510      -16.61480
H        -19.91636      -10.85952      -15.31511
