97

C          6.58154       -8.28892        0.07181
C          7.21285       -9.47451       -0.29569
F          8.53481       -9.59596       -0.11374
C          6.48498      -10.52217       -0.84068
F          7.09535      -11.66820       -1.17140
C          5.11706      -10.39388       -1.05372
C          4.46244       -9.20110       -0.71216
C          5.19866       -8.13497       -0.11466
C          4.53833       -6.94971        0.28391
C          3.17389       -6.80526        0.06062
C          2.49675       -7.85392       -0.57118
C          3.09526       -9.04516       -0.95207
C          1.08281       -7.51359       -0.75238
O          0.35827       -8.03791       -1.57035
C          0.82981       -6.33055        0.14052
C          2.17871       -5.73190        0.36894
C          2.46402       -4.42883        0.61572
C          1.45032       -3.43706        0.74788
N          0.61551       -2.63841        0.86735
C          3.79644       -3.93064        0.69173
N          4.88278       -3.52835        0.75522
C         -0.34059       -5.99829        0.72126
C         -1.61935       -6.63415        0.56464
C         -2.86589       -5.99847        0.66111
C         -3.93135       -6.90777        0.40746
C         -3.44133       -8.15293        0.16351
S         -1.79445       -8.36488        0.40779
C         -4.35952       -9.11763       -0.17170
C         -5.67238       -8.77648       -0.01407
S         -5.65185       -7.07207        0.29375
C         -6.49797       -9.94498       -0.02513
C         -5.67168      -11.06990       -0.03774
S         -4.04707      -10.72023       -0.57480
C         -5.82251      -12.27685        0.73403
C         -5.47984      -13.59419        0.49954
C         -4.61391      -14.06080        1.57009
N         -3.94372      -15.24388        1.54773
C         -4.31468      -16.00275        0.47664
C         -3.74749      -17.37043        0.46532
O         -2.79532      -17.70235        1.15963
C         -4.39312      -18.36604       -0.40530
C         -5.30515      -18.00415       -1.30798
C         -5.70170      -16.59084       -1.50169
O         -6.46246      -16.30887       -2.41835
C         -5.20243      -15.58760       -0.52506
N         -5.75284      -14.32489       -0.61981
C         -4.50385      -13.14611        2.59660
S         -5.81011      -12.02724        2.45178
C         -3.53988      -13.07182        3.66280
C         -2.21692      -13.50962        3.59889
C         -1.56285      -13.27990        4.83715
C         -2.39954      -12.64305        5.70180
S         -3.95176      -12.30892        5.16557
C         -1.90748      -12.39186        6.95189
C         -0.67509      -12.89652        7.22612
S         -0.09572      -13.51577        5.72002
C         -0.38913      -12.76138        8.61090
C         -1.48517      -12.21858        9.28794
S         -2.69774      -11.59523        8.19812
C         -1.61150      -12.01252       10.69158
C         -2.74599      -12.04066       11.40821
C         -2.66722      -11.35764       12.73889
O         -1.68196      -11.13152       13.40929
C         -4.03891      -10.92073       13.03408
C         -4.40549      -10.07481       14.06723
C         -5.74605       -9.69438       14.16054
C         -6.68643      -10.16673       13.19564
C         -8.02943       -9.77492       13.31044
C         -8.43056       -8.94008       14.35022
C         -7.51028       -8.47804       15.28001
C         -6.17277       -8.84611       15.19150
F         -7.90254       -7.67220       16.27591
F         -9.71932       -8.58624       14.44612
C         -6.26454      -11.01534       12.14783
C         -4.93535      -11.41395       12.07411
C         -4.17328      -12.30677       11.14975
C         -4.70257      -13.32433       10.42496
C         -3.89289      -14.32530        9.80555
N         -3.25875      -15.15992        9.31352
C         -6.10530      -13.53224       10.29638
N         -7.25225      -13.68898       10.19157
H          7.18713       -7.49268        0.49735
H          4.57716      -11.23264       -1.48562
H          5.12294       -6.17654        0.77330
H          2.49778       -9.82733       -1.41418
H         -0.37118       -5.15371        1.40436
H         -2.99575       -4.94308        0.86854
H         -7.54920       -9.95050        0.23503
H         -4.08155      -19.39680       -0.27245
H         -5.78788      -18.73336       -1.95020
H         -1.76149      -13.98153        2.73627
H          0.51598      -13.11348        9.08945
H         -0.68508      -11.73232       11.19521
H         -3.65408       -9.71794       14.76698
H         -8.78121      -10.11619       12.60304
H         -5.47789       -8.46536       15.93544
H         -6.99709      -11.33139       11.41046
