111

C         -6.10922       -3.39191      -10.21092
C         -7.35896       -3.64602      -10.77465
F         -7.52726       -3.48882      -12.09488
C         -8.41944       -4.06500       -9.98484
F         -9.60962       -4.33742      -10.53675
C         -8.25991       -4.20459       -8.61212
C         -7.01923       -3.93339       -8.01985
C         -5.90715       -3.54937       -8.82878
C         -4.63236       -3.35536       -8.23861
C         -4.47129       -3.52040       -6.86673
C         -5.60545       -3.83544       -6.10421
C         -6.86404       -4.05015       -6.63879
C         -5.25552       -3.98452       -4.68773
O         -6.03823       -3.93985       -3.76325
C         -3.76017       -4.09314       -4.66632
C         -3.29161       -3.50068       -5.94405
C         -2.08413       -2.92948       -6.17150
C         -1.07709       -2.86215       -5.16467
N         -0.26091       -2.81593       -4.34151
C         -1.75355       -2.29824       -7.40308
N         -1.48793       -1.78481       -8.40965
C         -3.08624       -4.82674       -3.76163
C         -3.73630       -5.52528       -2.70362
C         -3.96700       -5.11919       -1.39129
C         -4.73565       -6.08010       -0.72132
C         -5.05768       -7.18682       -1.47356
S         -4.36511       -7.12658       -3.00153
C         -5.95206       -8.11982       -0.85836
C         -6.39346       -7.80035        0.40544
Si        -5.63928       -6.17122        0.90703
C         -4.60344       -6.30410        2.43076
C         -6.86357       -4.79288        1.10606
C         -7.27466       -8.73269        0.96704
C         -7.50909       -9.78897        0.08224
S         -6.66069       -9.52206       -1.42550
C         -8.36791      -10.98902        0.24519
C         -8.07888      -12.26271       -0.30431
C         -8.97093      -13.38957       -0.16790
N         -8.67296      -14.54686       -0.80708
C         -7.51423      -14.64568       -1.48930
C         -6.64006      -13.59714       -1.56221
N         -6.91400      -12.41880       -0.97316
F         -5.48357      -13.71558       -2.22806
F         -7.22414      -15.81373       -2.07901
C        -10.14556      -13.32874        0.62494
C        -10.45716      -12.07166        1.21933
C         -9.56720      -10.87802        1.00884
N        -10.04952       -9.77422        1.61002
S        -11.43161      -10.19200        2.40505
N        -11.50768      -11.78953        2.01317
C        -11.04151      -14.47616        0.90771
C        -12.42249      -14.50098        1.13415
C        -12.85347      -15.80450        1.40259
C        -11.87073      -16.75588        1.29878
S        -10.36329      -16.07859        1.07391
C        -12.30341      -18.11234        1.36199
C        -13.65592      -18.31372        1.52571
Si       -14.47884      -16.65038        1.74038
C        -15.02805      -16.42689        3.51843
C        -15.86630      -16.16562        0.64218
C        -14.03319      -19.66168        1.47847
C        -12.92479      -20.47734        1.23270
S        -11.45063      -19.54415        1.23573
C        -12.89176      -21.89871        1.13093
C        -12.06395      -22.63076        0.37162
C        -11.93648      -24.07718        0.74895
O        -12.70878      -24.75400        1.39526
C        -10.62104      -24.50157        0.24457
C        -10.01616      -25.72345        0.48847
C         -8.72851      -25.93262       -0.01427
C         -8.06268      -24.88342       -0.71805
C         -6.76345      -25.10711       -1.20015
C         -6.14688      -26.34080       -1.00930
C         -6.80261      -27.36070       -0.33503
C         -8.08366      -27.16415        0.16872
F         -6.20750      -28.54907       -0.16463
F         -4.91173      -26.53745       -1.49013
C         -8.71257      -23.64854       -0.93368
C        -10.01582      -23.46801       -0.48431
C        -11.00560      -22.36160       -0.61778
C        -11.05988      -21.48375       -1.65315
C        -12.22002      -20.69858       -1.91836
N        -13.17005      -20.08574       -2.18877
C        -10.02891      -21.38112       -2.62816
N         -9.17796      -21.30989       -3.42286
H         -5.30401       -3.07301      -10.86784
H         -9.10995       -4.53427       -8.01995
H         -3.79541       -3.11142       -8.88738
H         -7.68616       -4.33426       -5.98674
H         -2.02108       -5.01059       -3.85238
H         -3.65677       -4.15808       -1.00050
H         -4.03897       -7.24189        2.44687
H         -5.22652       -6.28218        3.33106
H         -3.88674       -5.48101        2.50191
H         -7.46928       -4.67454        0.20157
H         -6.35569       -3.84159        1.29150
H         -7.54483       -4.98078        1.94107
H         -7.72979       -8.65251        1.94736
H        -13.05875      -13.62444        1.10355
H        -14.31963      -16.89166        4.21151
H        -16.00828      -16.88569        3.68125
H        -15.10408      -15.36564        3.77430
H        -15.57784      -16.20262       -0.41236
H        -16.19253      -15.14157        0.85491
H        -16.73432      -16.81812        0.77488
H        -15.04149      -20.04416        1.58807
H        -13.56788      -22.41824        1.81068
H        -10.54297      -26.48428        1.05867
H         -6.21903      -24.33541       -1.73885
H         -8.56747      -27.98390        0.69322
H         -8.17651      -22.85923       -1.45366
