149

C        -11.72896       -5.95102       -9.85972
C        -12.15431       -7.08072      -10.60428
F        -12.65764       -6.93836      -11.85549
C        -12.05339       -8.36689      -10.06809
F        -12.42329       -9.45989      -10.78406
C        -11.57368       -8.53557       -8.78514
C        -11.16549       -7.42904       -8.03630
C        -11.19834       -6.10700       -8.55242
C        -10.68629       -5.01771       -7.73940
C        -10.15562       -5.30631       -6.42900
C        -10.22849       -6.60541       -6.02156
C        -10.71291       -7.65358       -6.76598
C         -9.73517       -6.79294       -4.72566
O         -9.98545       -7.81505       -4.17736
C         -9.08536       -5.61036       -4.19434
C         -9.45880       -4.54261       -5.28117
C         -9.23174       -3.19789       -5.26512
C         -8.46809       -2.55387       -4.22013
N         -7.87464       -1.93037       -3.44493
C         -9.69330       -2.30535       -6.30570
N        -10.10729       -1.67838       -7.18719
C         -8.36479       -5.57836       -2.97654
C         -8.01410       -6.76585       -1.95574
C         -7.29082       -6.54926       -0.80618
C         -6.82112       -7.61389       -0.00218
C         -7.25037       -8.86413       -0.44310
S         -8.22146       -8.48856       -1.89091
C         -6.78290      -10.10507        0.23273
C         -7.45960      -11.45194       -0.01991
C         -6.78163      -12.69318        0.06109
C         -7.41774      -13.90565       -0.25880
C         -8.75602      -13.92224       -0.67069
C         -9.43954      -12.71291       -0.77244
C         -8.80367      -11.50793       -0.46203
C         -9.46047      -15.20592       -1.02764
C         -5.63538       -9.95676        1.18306
C         -5.37351       -8.67673        1.65790
C         -5.92249       -7.46282        1.10211
C         -5.29240       -6.10801        1.48425
C         -3.92392       -6.10604        1.78383
C         -3.22140       -5.02881        2.18272
C         -3.81464       -3.80771        2.23986
C         -5.13829       -3.66603        1.84383
C         -5.87271       -4.80470        1.49421
C         -2.97689       -2.72479        2.75050
S         -4.20391       -8.82442        2.89842
C         -3.54816      -10.31619        2.63050
C         -4.55065      -10.88575        1.70571
C         -2.07336      -10.71131        3.26022
C         -1.46491      -10.21892        4.47785
C         -0.13023      -10.64185        4.99464
C          0.76884      -11.59560        4.35043
C          0.07605      -12.12120        3.18152
C         -1.22842      -11.69921        2.68966
N         -1.63331      -12.35971        1.60078
Se        -0.53549      -13.68873        1.15967
N          0.58191      -13.11816        2.44479
C          2.29578      -12.06529        4.91367
C          2.76690      -13.31105        4.64216
C          3.85555      -13.88732        5.38687
C          4.67932      -12.97836        5.99754
S          3.65367      -11.48508        5.89482
C          6.04933      -13.45394        6.49443
C          7.06547      -12.41492        6.92861
C          8.06748      -12.61069        7.91964
C          8.92769      -11.54461        8.29165
C          8.82181      -10.28937        7.66108
C          7.87348      -10.11833        6.65680
C          7.01308      -11.15396        6.30732
C          9.68270       -9.10934        8.03241
C          6.34577      -14.93770        6.48053
C          5.26542      -15.69813        6.13961
C          4.06578      -15.26741        5.54887
C          2.98623      -16.25085        5.16419
C          1.63261      -15.87265        5.17536
C          0.63658      -16.69452        4.82497
C          0.91008      -17.98913        4.53697
C          2.18919      -18.45195        4.52531
C          3.19717      -17.60465        4.79571
C         -0.17482      -18.90423        4.31858
S          5.64070      -17.25016        6.37338
C          7.19032      -17.35463        6.46654
C          7.52026      -15.92318        6.65251
C          7.48628      -18.91844        6.24164
C          8.23014      -20.09530        6.42862
C          7.96319      -21.33160        5.59298
O          7.06900      -21.46845        4.76762
C          9.00726      -22.33222        5.81190
C          9.25907      -23.50814        5.07818
C         10.34534      -24.32899        5.43681
C         11.11831      -24.00911        6.58533
C         12.16966      -24.88352        6.96015
C         12.47511      -26.01332        6.17983
C         11.74727      -26.28194        5.01904
C         10.68061      -25.45499        4.65656
F         12.07250      -27.34835        4.24158
F         13.49266      -26.84078        6.53646
C         10.84587      -22.80415        7.30125
C          9.80789      -21.93099        6.86299
C          9.39773      -20.51493        7.28130
C          9.99845      -19.72245        8.17994
C          9.57707      -18.37452        8.41478
N          9.29604      -17.28084        8.65762
C         11.15542      -20.12814        8.95237
N         12.08249      -20.42006        9.58442
H        -11.81505       -4.97572      -10.31696
H        -11.50512       -9.53878       -8.37358
H        -10.68441       -4.01723       -8.14488
H        -10.70979       -8.65437       -6.34961
H         -7.98776       -4.59795       -2.70336
H         -7.04537       -5.63520       -0.59741
H         -5.75289      -12.76375        0.31870
H         -6.85814      -14.83254       -0.20778
H        -10.46628      -12.69781       -1.12131
H         -9.38839      -10.63125       -0.61869
H         -8.79674      -16.08831       -0.91058
H         -9.81175      -15.17268       -2.08207
H        -10.34452      -15.34598       -0.36877
H         -3.27804       -6.90911        1.71903
H         -2.18230       -5.17497        2.43603
H         -5.62062       -2.69854        1.83723
H         -6.86549       -4.56622        1.27777
H         -1.99703       -2.76581        2.22746
H         -2.83540       -2.97251        3.82576
H         -3.46645       -1.74735        2.63252
H         -4.40895      -11.88653        1.34885
H         -2.05314       -9.53362        5.07530
H          0.17894      -10.21524        5.94185
H          2.28537      -13.77964        3.90010
H          8.16847      -13.55576        8.43900
H          9.66655      -11.68681        9.07525
H          7.78753       -9.16790        6.14456
H          6.30730      -10.95881        5.52090
H         10.38542       -9.33826        8.85939
H          9.02768       -8.26907        8.35596
H         10.26540       -8.76792        7.14924
H          1.18608      -14.98839        5.44234
H         -0.36647      -16.31895        4.83098
H          2.43231      -19.48466        4.31184
H          4.04356      -18.17494        4.68177
H         -1.13193      -18.35194        4.24847
H         -0.16651      -19.52186        5.23847
H          0.04920      -19.46016        3.39216
H          8.54359      -15.61644        6.71199
H          6.69566      -19.25080        5.55066
H          8.65141      -23.76611        4.21790
H         12.76922      -24.69474        7.84256
H         10.13015      -25.68656        3.75255
H         11.47118      -22.55510        8.14139
