85

C        -14.97193        1.10745        0.10262
C        -16.33833        1.06214        0.36788
F        -17.11252        2.08609       -0.01877
C        -16.89899       -0.02561        1.02073
F        -18.21505       -0.06169        1.26873
C        -16.10254       -1.09060        1.42500
C        -14.72329       -1.06616        1.17142
C        -14.14048        0.04744        0.49557
C        -12.75190        0.07390        0.22485
C        -11.94675       -0.98084        0.63538
C        -12.55285       -2.05516        1.29294
C        -13.91480       -2.12846        1.57128
C        -11.58072       -3.10374        1.59952
O        -11.79282       -4.05583        2.31989
C        -10.32318       -2.70601        0.87914
C        -10.48628       -1.27911        0.50799
C         -9.49297       -0.39720        0.25641
C         -8.10863       -0.73856        0.28484
N         -6.98359       -1.02930        0.28698
C         -9.74806        0.97387        0.01006
N         -9.95779        2.09649       -0.20115
C         -9.36004       -3.56248        0.51095
C         -9.31763       -4.98396        0.76327
C         -8.31937       -5.75566        0.32033
C         -8.32405       -7.18050        0.51322
C         -7.18636       -7.88282        0.62945
C         -7.11154       -9.33821        0.82455
C         -6.06352       -9.93191        1.55885
C         -5.97295      -11.36144        1.73412
N         -4.95487      -11.88840        2.45481
C         -4.05025      -11.04122        2.99369
C         -4.13683       -9.67864        2.82349
N         -5.13376       -9.11540        2.10906
F         -3.22224       -8.86961        3.36837
F         -3.04814      -11.56611        3.71112
C         -6.92049      -12.24753        1.16329
C         -8.01406      -11.67399        0.44880
C         -8.09556      -10.19530        0.25307
N         -9.14835       -9.83906       -0.50763
S         -9.99827      -11.20129       -0.86771
N         -9.06259      -12.31723       -0.09845
C         -6.79321      -13.71294        1.29422
C         -7.24162      -14.60656        0.39922
C         -7.05959      -16.03030        0.54012
C         -7.85860      -16.97269        0.01727
C         -9.06834      -16.72883       -0.73713
C        -10.33119      -17.10484       -0.47612
C        -11.39894      -16.43003       -1.29702
O        -11.27441      -15.81945       -2.33894
C        -12.65794      -16.61553       -0.56224
C        -13.89570      -16.10057       -0.92775
C        -15.00188      -16.38795       -0.11863
C        -14.81946      -17.15356        1.06917
C        -15.93543      -17.45566        1.86633
C        -17.20373      -17.02221        1.49263
C        -17.37917      -16.27275        0.33890
C        -16.28984      -15.94664       -0.46391
F        -18.60392      -15.86288       -0.01836
F        -18.25753      -17.34508        2.25482
C        -13.53538      -17.62280        1.42151
C        -12.44828      -17.39286        0.58395
C        -11.02181      -17.86726        0.58353
C        -10.58324      -18.95732        1.25504
C         -9.35102      -19.60667        0.97674
N         -8.38052      -20.20740        0.76400
C        -11.36397      -19.64386        2.22167
N        -11.99472      -20.20601        3.02274
H        -14.57181        1.97857       -0.40882
H        -16.57116       -1.92845        1.93440
H        -12.34845        0.92390       -0.31772
H        -14.31928       -3.00503        2.07104
H         -8.52814       -3.22322       -0.10322
H        -10.12719       -5.43178        1.33785
H         -7.47606       -5.34633       -0.23219
H         -9.30219       -7.64983        0.55419
H         -6.23345       -7.35729        0.64665
H         -6.26821      -14.05635        2.18407
H         -7.73961      -14.28632       -0.51210
H         -6.17704      -16.34695        1.09585
H         -7.53166      -17.99865        0.13116
H         -8.90468      -16.06381       -1.59031
H        -13.98923      -15.50854       -1.83499
H        -15.83929      -18.04795        2.77316
H        -16.46571      -15.36138       -1.36266
H        -13.43766      -18.17848        2.34838
