105

C          1.91133        0.24407        0.50365
C          3.24188       -0.12607        0.31303
F          4.21601        0.73339        0.64207
C          3.56095       -1.37200       -0.20639
F          4.84201       -1.73509       -0.35714
C          2.55609       -2.25571       -0.57979
C          1.21015       -1.89337       -0.42770
C          0.87077       -0.63500        0.15510
C         -0.48786       -0.30332        0.38600
C         -1.48978       -1.19511        0.01727
C         -1.11576       -2.39405       -0.60485
C          0.19850       -2.76595       -0.83233
C         -2.29068       -3.23481       -0.87066
O         -2.32109       -4.17865       -1.62906
C         -3.39093       -2.62441       -0.06050
C         -2.97244       -1.22346        0.21063
C         -3.78775       -0.16763        0.44077
C         -5.20788       -0.29011        0.49523
N         -6.35938       -0.38563        0.55438
C         -3.28016        1.15324        0.59339
N         -2.87647        2.23643        0.70760
C         -4.37627       -3.34379        0.50798
C         -4.56602       -4.80770        0.39739
C         -5.37258       -5.38743       -0.59146
O         -5.95888       -4.52091       -1.47949
C         -6.90030       -5.06901       -2.39300
C         -5.53096       -6.78368       -0.62013
C         -4.86399       -7.64163        0.28358
C         -4.05860       -7.03467        1.27386
C         -3.94100       -5.63642        1.34352
O         -3.33204       -7.87338        2.08841
C         -3.06442       -7.39823        3.40331
C         -4.99864       -9.12365        0.16819
C         -5.28428       -9.98097        1.26008
C         -5.24422      -11.42519        1.14576
N         -5.46344      -12.19342        2.23842
C         -5.74586      -11.58325        3.40776
C         -5.83917      -10.21764        3.50549
N         -5.62943       -9.41557        2.44256
F         -6.14373       -9.64242        4.67773
F         -5.96675      -12.35481        4.48156
C         -5.03082      -12.09292       -0.08488
C         -4.88505      -11.26181       -1.22945
C         -4.83479       -9.76432       -1.09889
N         -4.63875       -9.16008       -2.28592
S         -4.60516      -10.33165       -3.44739
N         -4.82845      -11.67052       -2.51056
C         -5.13563      -13.56558       -0.24744
C         -4.14649      -14.38867       -0.81286
O         -2.99217      -13.77587       -1.23495
C         -2.00996      -14.58683       -1.87400
C         -4.37952      -15.77422       -0.91844
C         -5.58743      -16.38129       -0.50971
C         -6.58746      -15.55208        0.02020
C         -6.33068      -14.18227        0.17019
O         -7.77475      -16.11143        0.41360
C         -8.93194      -15.27507        0.38115
C         -5.71632      -17.82830       -0.83255
C         -6.36362      -18.83239       -0.22283
C         -6.48300      -20.17822       -0.87912
O         -5.83778      -20.61566       -1.80803
C         -7.57786      -20.86870       -0.16330
C         -7.97085      -22.18680       -0.30836
C         -8.98016      -22.66619        0.53967
C         -9.65883      -21.76750        1.42099
C        -10.67804      -22.25197        2.25190
C        -10.98212      -23.60840        2.26022
C        -10.29427      -24.48990        1.43807
C         -9.30975      -24.02847        0.56865
F        -10.56369      -25.80153        1.48438
F        -11.92993      -24.06090        3.09222
C         -9.25301      -20.42696        1.51504
C         -8.13887      -20.01793        0.80134
C         -7.18161      -18.89452        0.98323
C         -6.77347      -18.54848        2.22696
C         -5.38331      -18.37084        2.50898
N         -4.25134      -18.36516        2.76486
C         -7.64737      -18.57136        3.35139
N         -8.40051      -18.56700        4.23482
H          1.70610        1.22609        0.92249
H          2.83895       -3.22505       -0.98241
H         -0.71214        0.63530        0.88575
H          0.41451       -3.73112       -1.28334
H         -5.08250       -2.89393        1.19907
H         -7.26285       -4.25622       -3.02862
H         -7.75973       -5.48414       -1.85595
H         -6.44268       -5.81817       -3.04806
H         -6.16396       -7.23799       -1.37635
H         -3.33987       -5.17755        2.12142
H         -2.76510       -8.25584        4.01464
H         -3.95033       -6.95182        3.86877
H         -2.22808       -6.69360        3.38895
H         -1.33309      -13.93335       -2.43212
H         -2.43792      -15.28069       -2.60541
H         -1.42676      -15.12326       -1.11883
H         -3.61621      -16.42310       -1.33895
H         -7.06338      -13.53597        0.63982
H         -9.72823      -15.79654        0.91837
H         -9.25331      -15.11587       -0.65278
H         -8.81089      -14.31719        0.89352
H         -5.20772      -18.08647       -1.76612
H         -7.44945      -22.83437       -1.00846
H        -11.21610      -21.59561        2.93158
H         -8.78445      -24.75012       -0.05121
H         -9.75544      -19.75885        2.20949
