97

C          0.75723       -0.79543       -5.77421
C          2.11574       -1.09163       -5.88881
F          2.94100       -0.18950       -6.43665
C          2.61635       -2.30326       -5.43527
F          3.92584       -2.57339       -5.52473
C          1.76493       -3.25152       -4.88460
C          0.39454       -2.98299       -4.77459
C         -0.12864       -1.72508       -5.19987
C         -1.50702       -1.43697       -5.02342
C         -2.34971       -2.38826       -4.45020
C         -1.79927       -3.62665       -4.09365
C         -0.45956       -3.94540       -4.23746
C         -2.81117       -4.49842       -3.48200
O         -2.69434       -5.69416       -3.32209
C         -3.97366       -3.60042       -3.18243
C         -3.79360       -2.40304       -4.05257
C         -4.76719       -1.59345       -4.53307
C         -6.14412       -1.78684       -4.20480
N         -7.25796       -1.94388       -3.92387
C         -4.50773       -0.53339       -5.45542
N         -4.28059        0.33941       -6.19477
C         -4.84197       -3.79750       -2.17016
C         -4.84073       -4.94404       -1.31347
C         -4.17766       -5.13468       -0.09682
C         -4.37933       -6.46389        0.38266
C         -5.22446       -7.14444       -0.44251
S         -5.88973       -6.27404       -1.72197
C         -5.41095       -8.47880       -0.16226
C         -4.77871       -8.96962        0.93936
S         -3.94372       -7.60654        1.61234
C         -5.04656      -10.36448        1.09325
C         -5.80589      -10.85770        0.02171
S         -6.33607       -9.56827       -1.04183
C         -6.26945      -12.25056       -0.25950
C         -6.67138      -13.15947        0.74585
C         -7.14377      -14.49574        0.44869
N         -7.46144      -15.31886        1.47195
C         -7.39870      -14.87564        2.74991
C         -6.98369      -13.60308        3.02517
N         -6.61258      -12.75069        2.03582
C         -6.90002      -13.08785        4.36150
N         -6.83703      -12.69223        5.44415
C         -7.80574      -15.80783        3.75750
N         -8.13187      -16.54448        4.59408
C         -7.29285      -14.98640       -0.87138
C         -6.88303      -14.10569       -1.91275
C         -6.33555      -12.73455       -1.60348
N         -5.93448      -12.09708       -2.71798
S         -6.31406      -13.03527       -4.01558
N         -6.93719      -14.34616       -3.23608
C         -7.82849      -16.33037       -1.24203
C         -7.47578      -17.13892       -2.32858
C         -8.23571      -18.33739       -2.35275
C         -9.08977      -18.39509       -1.29409
S         -9.11951      -17.04717       -0.29226
C         -9.83581      -19.54592       -1.17652
C         -9.66902      -20.46825       -2.16603
S         -8.49273      -19.79852       -3.23508
C        -10.50514      -21.59390       -1.95838
C        -11.20440      -21.47908       -0.75651
S        -10.93571      -19.94180        0.03553
C        -12.12459      -22.38807       -0.15189
C        -12.03155      -23.72438       -0.21934
C        -13.27026      -24.51525        0.08339
O        -14.24171      -24.17256        0.72166
C        -13.10510      -25.78787       -0.64251
C        -14.05059      -26.79442       -0.75689
C        -13.72645      -27.91808       -1.52762
C        -12.46878      -27.97590       -2.20091
C        -12.15073      -29.10368       -2.97005
C        -13.04940      -30.16028       -3.06349
C        -14.27100      -30.10623       -2.40772
C        -14.61831      -28.99371       -1.64690
F        -15.12871      -31.13137       -2.49804
F        -12.71915      -31.23674       -3.78961
C        -11.54657      -26.92076       -2.07711
C        -11.84553      -25.84037       -1.26052
C        -11.06162      -24.65726       -0.80989
C         -9.71032      -24.61857       -0.70582
C         -9.03241      -23.66563        0.11285
N         -8.44590      -22.94223        0.79772
C         -8.85926      -25.57145       -1.32811
N         -8.17308      -26.33728       -1.87304
H          0.40960        0.16818       -6.13905
H          2.18636       -4.19196       -4.53947
H         -1.86918       -0.45635       -5.32215
H         -0.09806       -4.91566       -3.90794
H         -5.58958       -3.05059       -1.92208
H         -3.54920       -4.39338        0.38058
H         -4.68298      -10.96439        1.91901
H         -6.72599      -16.89422       -3.07047
H        -10.57030      -22.43175       -2.63930
H        -13.00682      -21.94605        0.31590
H        -15.00730      -26.70123       -0.24888
H        -11.19957      -29.18490       -3.49068
H        -15.58252      -28.98739       -1.14572
H        -10.60822      -26.98476       -2.61919
