148

C        -14.83996       -5.02347       -2.98216
C        -15.42619       -4.34763       -1.91323
F        -16.68445       -3.90249       -2.03085
C        -14.72207       -4.13514       -0.73655
F        -15.29932       -3.50361        0.29436
C        -13.40837       -4.56708       -0.61690
C        -12.78883       -5.22045       -1.68908
C        -13.51710       -5.48540       -2.88879
C        -12.90615       -6.20129       -3.95069
C        -11.58357       -6.60996       -3.83418
C        -10.89327       -6.27345       -2.66195
C        -11.45653       -5.61008       -1.58716
C         -9.51740       -6.77054       -2.70767
O         -8.61114       -6.37518       -2.00598
C         -9.49938       -7.75420       -3.83314
C        -10.65556       -7.41150       -4.69427
C        -10.76448       -7.65549       -6.01492
C         -9.74826       -8.31919       -6.75543
N         -8.91108       -8.87864       -7.35288
C        -11.88613       -7.21622       -6.78511
N        -12.79413       -6.86511       -7.39098
C         -8.73380       -8.85849       -3.84639
C         -7.83804       -9.17963       -2.79230
C         -8.06009       -9.97648       -1.69290
C         -6.94921      -10.03606       -0.77164
C         -5.79236       -9.53923       -1.40149
S         -6.25427       -8.58445       -2.77951
C         -4.48164       -9.78673       -0.89701
C         -3.23202       -9.41887       -1.67418
C         -2.03497       -9.00154       -1.05480
C         -0.87829       -8.65412       -1.78407
C         -0.88094       -8.65927       -3.17803
C         -2.05436       -9.03822       -3.82247
C         -3.17984       -9.44893       -3.08394
C          0.32075       -8.21168       -3.95887
C         -4.38571      -10.37535        0.39721
C         -5.55826      -10.57181        1.13778
C         -6.84837      -10.54350        0.55682
C         -8.06407      -11.01732        1.32950
C         -9.34467      -10.45893        1.16435
C        -10.47042      -10.91486        1.87808
C        -10.35278      -11.91315        2.84456
C         -9.09465      -12.46065        3.06602
C         -7.99445      -12.05112        2.29333
C        -11.53447      -12.33650        3.66570
S         -5.14973      -10.74445        2.80469
C         -3.55821      -11.19778        2.45626
C         -3.27314      -10.93172        1.13460
C         -2.70671      -11.76835        3.49572
C         -1.75279      -12.72953        3.14742
C         -0.90067      -13.26110        4.11022
F         -0.00624      -14.16929        3.69440
C         -0.96209      -12.85952        5.44946
C         -1.96029      -11.93537        5.79845
C         -2.80360      -11.39618        4.83997
F         -3.69062      -10.48236        5.26036
C         -0.00730      -13.35948        6.44740
C          1.04071      -14.24217        6.33185
C          1.69358      -14.59812        7.57763
C          1.24455      -13.73555        8.59658
S         -0.03559      -12.75601        8.01645
C          1.77052      -13.73535        9.91609
C          1.47734      -12.63996       10.94472
C          0.25279      -11.94533       11.05112
C          0.01497      -10.90725       11.97480
C          0.98610      -10.53776       12.89555
C          2.22496      -11.17314       12.81047
C          2.46824      -12.18093       11.84369
C          0.71210       -9.46605       13.91195
C          2.62065      -14.82366       10.25198
C          3.16560      -15.61191        9.22253
C          2.71211      -15.57054        7.86630
C          3.19238      -16.56191        6.78143
C          2.36842      -16.99880        5.71490
C          2.80101      -17.86953        4.68473
C          4.08069      -18.40983        4.69632
C          4.90183      -18.07133        5.76571
C          4.47377      -17.15501        6.75641
C          4.54706      -19.36781        3.63751
S          4.49506      -16.46737        9.91107
C          3.85427      -16.43666       11.49364
C          2.93651      -15.40806       11.54843
C          4.37852      -17.27537       12.52860
C          4.83980      -18.52321       12.32362
C          5.75052      -19.17887       13.32710
O          5.84401      -18.94715       14.51256
C          6.57895      -20.12436       12.53475
C          7.62383      -20.91913       12.96997
C          8.31566      -21.68204       12.01244
C          8.00274      -21.54089       10.62407
C          8.72738      -22.26435        9.66812
C          9.70227      -23.16636       10.07489
C          9.97781      -23.34357       11.42354
C          9.30753      -22.59861       12.39102
F         10.89144      -24.24478       11.80859
F         10.35891      -23.88009        9.15029
C          6.94093      -20.72164       10.22090
C          6.17771      -20.09618       11.19225
C          4.89008      -19.37552       11.12771
C          3.85441      -19.72709       10.33108
C          2.53498      -19.24547       10.56580
N          1.45217      -18.87936       10.77632
C          3.98229      -20.68831        9.28770
N          4.11835      -21.47846        8.44674
H        -15.42837       -5.17115       -3.88392
H        -12.88074       -4.38266        0.31544
H        -13.50073       -6.42690       -4.83094
H        -10.86109       -5.42134       -0.69669
H         -8.84629       -9.62491       -4.60380
H         -9.01491      -10.45618       -1.51943
H         -1.96698       -8.91950        0.02686
H          0.02148       -8.36178       -1.24563
H         -2.11372       -9.02260       -4.90911
H         -4.03308       -9.78392       -3.66662
H          1.24473       -8.57156       -3.49374
H          0.35410       -7.11856       -4.01246
H          0.30081       -8.60560       -4.98138
H         -9.50458       -9.63242        0.47877
H        -11.44053      -10.46387        1.68122
H         -8.94861      -13.21399        3.83828
H         -7.06054      -12.56915        2.49575
H        -12.42792      -12.42906        3.03952
H        -11.72625      -11.60282        4.45517
H        -11.36533      -13.31176        4.13577
H         -2.29086      -11.09787        0.70967
H         -1.65130      -13.08407        2.12584
H         -2.10597      -11.58168        6.81556
H          1.31525      -14.65779        5.37507
H         -0.59208      -12.17200       10.41408
H         -0.94965      -10.40223       11.96190
H          3.02261      -10.88292       13.49252
H          3.47646      -12.58978       11.80500
H         -0.35929       -9.23840       13.97635
H          1.23645       -8.54242       13.64821
H          1.02890       -9.78744       14.91010
H          1.33107      -16.68729        5.64018
H          2.11267      -18.12139        3.87845
H          5.89876      -18.50310        5.83503
H          5.22265      -16.92684        7.50282
H          3.98980      -19.23603        2.70316
H          4.42035      -20.40202        3.97390
H          5.60532      -19.20378        3.40307
H          2.43206      -15.11195       12.46151
H          4.47909      -16.82702       13.51621
H          7.87326      -20.96004       14.02701
H          8.52371      -22.16398        8.60467
H          9.55183      -22.76585       13.43651
H          6.70303      -20.61894        9.16539
