103

C          1.23106      -10.05911        8.32768
C          0.60063      -10.28714        9.54815
F          1.28253      -10.08568       10.68374
C         -0.72143      -10.70608        9.59440
F         -1.32868      -10.89621       10.77345
C         -1.43203      -10.92823        8.42090
C         -0.81650      -10.71586        7.17983
C          0.53423      -10.25084        7.12584
C          1.14220       -9.96267        5.88332
C          0.41950      -10.13876        4.71259
C         -0.88818      -10.63535        4.80387
C         -1.52371      -10.93202        5.99639
C         -1.50255      -10.68467        3.47467
O         -2.43551      -11.39125        3.16167
C         -0.64120       -9.80044        2.62205
C          0.68772       -9.81886        3.28019
C          1.89791       -9.74165        2.67783
C          2.02947       -9.56861        1.26872
N          2.12117       -9.41151        0.12316
C          3.11759       -9.90030        3.39474
N          4.10506      -10.02608        3.99104
C         -1.06880       -8.98038        1.64430
C         -2.41480       -8.84422        1.18111
C         -2.82487       -8.51814       -0.10076
C         -4.23741       -8.66972       -0.30021
C         -4.88330       -8.99832        0.88482
S         -3.79865       -8.88715        2.20608
C         -6.24046       -9.33990        0.90191
C         -6.98703       -9.38579       -0.28842
C         -6.34520       -9.01319       -1.46175
C         -5.00785       -8.61163       -1.46731
S         -7.36619       -9.18641       -2.81592
C         -8.71214       -9.72271       -1.88510
C         -8.34917       -9.77958       -0.54736
C         -9.98563      -10.10493       -2.55626
C        -10.80263      -11.18062       -2.14205
C        -12.01253      -11.56627       -2.85311
N        -12.74545      -12.59945       -2.37842
C        -12.34393      -13.25862       -1.25732
C        -11.19987      -12.90290       -0.59395
N        -10.43387      -11.87190       -1.03835
C        -10.74642      -13.56162        0.59916
N        -10.40275      -14.09972        1.56620
C        -13.18813      -14.33290       -0.82470
N        -13.85778      -15.20690       -0.45987
C        -12.45352      -10.89835       -4.02423
C        -11.64377       -9.80747       -4.47098
C        -10.42291       -9.38201       -3.70492
N         -9.86237       -8.27528       -4.22684
S        -10.67438       -7.88312       -5.59965
N        -11.81890       -9.06171       -5.57704
C        -13.68946      -11.26505       -4.78003
C        -14.30405      -12.49746       -4.96143
C        -15.48745      -12.45724       -5.79001
C        -15.76293      -11.16070       -6.20060
S        -14.64390      -10.05056       -5.54582
C        -16.85717      -10.87089       -7.02179
C        -17.73498      -11.87785       -7.44779
C        -17.45292      -13.18076       -7.05586
C        -16.35853      -13.47154       -6.22798
S        -18.58926      -14.27918       -7.71661
C        -19.48673      -13.04000       -8.52538
C        -18.94511      -11.80637       -8.22780
C        -20.64606      -13.45216       -9.23682
C        -21.23333      -12.96696      -10.34077
C        -22.55941      -13.63497      -10.61031
O        -23.05492      -14.59133      -10.04818
C        -23.18950      -12.90334      -11.70267
C        -24.40181      -13.25510      -12.28271
C        -24.82096      -12.55338      -13.41127
C        -24.01745      -11.48876      -13.90830
C        -24.42861      -10.82239      -15.07427
C        -25.59717      -11.20440      -15.72916
C        -26.37886      -12.23723      -15.23297
C        -26.00301      -12.91063      -14.07684
F        -27.49826      -12.60460      -15.87102
F        -25.95493      -10.57001      -16.85380
C        -22.80916      -11.14214      -13.25380
C        -22.36988      -11.85917      -12.14188
C        -21.08140      -11.89308      -11.34872
C        -19.97659      -11.18601      -11.69274
C        -18.65910      -11.54452      -11.29004
N        -17.55437      -11.80416      -11.05515
C        -20.01205      -10.05610      -12.56154
N        -20.04580       -9.11521      -13.24297
H          2.26490       -9.72371        8.33472
H         -2.46710      -11.25265        8.49202
H          2.15267       -9.56390        5.87287
H         -2.55545      -11.27460        5.99029
H         -0.35810       -8.32988        1.14080
H         -2.13155       -8.31172       -0.90818
H         -6.70992       -9.62186        1.84225
H         -4.53732       -8.31919       -2.40332
H         -9.01419      -10.12169        0.23667
H        -13.92642      -13.41944       -4.53539
H        -17.03316       -9.84489       -7.33667
H        -16.17954      -14.50001       -5.92004
H        -19.36690      -10.86848       -8.56486
H        -21.13192      -14.31448       -8.76879
H        -24.97091      -14.09104      -11.88211
H        -23.83980      -10.01414      -15.50099
H        -26.63131      -13.72256      -13.71963
H        -22.23044      -10.33487      -13.68855
