110

C          0.96128       -0.35666       -6.32802
C          1.09787        0.86041       -5.66431
F          2.09259        1.68683       -6.01343
C          0.22144        1.21758       -4.64940
F          0.37090        2.38191       -4.00353
C         -0.82118        0.37355       -4.29130
C         -0.98693       -0.84709       -4.95684
C         -0.07327       -1.23836       -5.98272
C         -0.20863       -2.49367       -6.62402
C         -1.25052       -3.33771       -6.26976
C         -2.14392       -2.89427       -5.28726
C         -2.04124       -1.68813       -4.61731
C         -3.16049       -3.90514       -5.02280
O         -4.20959       -3.67998       -4.45912
C         -2.64507       -5.16469       -5.65207
C         -1.65647       -4.72146       -6.66850
C         -1.30706       -5.37199       -7.80640
C         -1.85059       -6.63853       -8.15965
N         -2.28669       -7.67817       -8.44429
C         -0.41756       -4.80880       -8.76651
N          0.30849       -4.34626       -9.53911
C         -2.89651       -6.40662       -5.20053
C         -3.70514       -6.70493       -4.06172
C         -3.91682       -5.99329       -2.87925
C         -4.88615       -6.61698       -2.09967
C         -5.31128       -7.83056       -2.57655
S         -4.57009       -8.22659       -4.02743
C         -6.27091       -8.50288       -1.76042
C         -6.66258       -7.84702       -0.61354
Si        -5.80732       -6.19591       -0.54183
C         -4.77305       -5.87702        0.94796
C         -6.95414       -4.75040       -0.80347
C         -7.54202       -8.57922        0.19363
C         -7.83593       -9.81448       -0.38796
S         -7.02269       -9.98350       -1.92905
C         -8.68406      -10.93027        0.11273
C         -8.33404      -12.24357       -0.23722
C         -9.06039      -13.32427        0.22919
C        -10.13907      -13.13711        1.10269
C        -10.54280      -11.83239        1.43963
N        -11.61880      -11.64300        2.24729
C        -11.97938      -10.38374        2.54584
C        -11.28321       -9.30692        2.06562
N        -10.20325       -9.45314        1.27227
C         -9.80880      -10.71212        0.94049
C        -10.79348      -14.32980        1.69138
C        -12.13332      -14.56859        2.00697
C        -12.27580      -15.83088        2.59681
C        -11.10303      -16.53372        2.71474
S         -9.78452      -15.67970        2.15182
C        -11.21321      -17.85908        3.22154
C        -12.48318      -18.31387        3.49249
Si       -13.66829      -16.88755        3.24766
C        -14.26574      -16.27415        4.91480
C        -15.11653      -17.11429        2.14589
C        -12.53199      -19.67347        3.83669
C        -11.25096      -20.23250        3.80812
S        -10.04156      -18.98764        3.58547
C        -10.85025      -21.58231        4.04521
C         -9.81827      -22.19455        3.43987
C         -9.23043      -23.39187        4.12427
O         -9.76388      -24.13719        4.91825
C         -7.81495      -23.42116        3.70446
C         -6.83109      -24.26410        4.19525
C         -5.52095      -24.09096        3.73044
C         -5.22580      -23.03222        2.81829
C         -3.90526      -22.85471        2.37874
C         -2.90356      -23.72077        2.80528
C         -3.19471      -24.75989        3.67725
C         -4.49046      -24.94526        4.14958
F         -2.22793      -25.60024        4.07034
F         -1.65290      -23.54707        2.35677
C         -6.25419      -22.18926        2.35277
C         -7.56170      -22.41338        2.76073
C         -8.86441      -21.79791        2.39103
C         -9.15733      -21.22538        1.19666
C        -10.50182      -20.98503        0.77955
N        -11.58720      -20.82533        0.40238
C         -8.15933      -20.90083        0.23316
N         -7.33414      -20.62747       -0.53501
H          1.67057       -0.59983       -7.11496
H         -1.49213        0.68091       -3.49334
H          0.52818       -2.77740       -7.36914
H         -2.75965       -1.43601       -3.84074
H         -2.43683       -7.26967       -5.67412
H         -3.45502       -5.04390       -2.64289
H         -4.18117       -6.75691        1.21752
H         -5.39292       -5.61714        1.81166
H         -4.07668       -5.04885        0.78103
H         -7.55303       -4.88296       -1.71036
H         -6.39168       -3.81722       -0.91107
H         -7.64165       -4.63438        0.03945
H         -7.94227       -8.25497        1.14689
H         -7.47195      -12.45539       -0.86655
H         -8.74943      -14.31958       -0.08328
H        -12.84780      -10.27325        3.18370
H        -11.57045       -8.29024        2.30364
H        -12.92671      -13.85386        1.82314
H        -13.44626      -16.26207        5.64079
H        -15.05324      -16.92460        5.30725
H        -14.66585      -15.25883        4.83953
H        -14.81432      -17.41920        1.13950
H        -15.68751      -16.18481        2.04787
H        -15.79977      -17.87699        2.53202
H        -13.42824      -20.24385        4.05199
H        -11.37562      -22.09833        4.84869
H         -7.08713      -25.03183        4.92088
H         -3.64000      -22.05603        1.69024
H         -4.68092      -25.76807        4.83348
H         -6.00162      -21.37766        1.67600
