91

C        -14.00304       -2.37278        8.86034
C        -13.30885       -1.17937        9.03679
F        -13.73789       -0.30338        9.95538
C        -12.17824       -0.90097        8.28207
F        -11.50315        0.24027        8.47433
C        -11.72807       -1.80390        7.32534
C        -12.41032       -3.01244        7.12677
C        -13.56281       -3.31280        7.91756
C        -14.22623       -4.54985        7.77250
C        -13.74788       -5.47694        6.85876
C        -12.62572       -5.14431        6.08722
C        -11.95364       -3.93830        6.18497
C        -12.21568       -6.29416        5.27139
O        -11.52227       -6.23651        4.27946
C        -12.93255       -7.46861        5.87583
C        -14.11687       -6.88606        6.54828
C        -15.34098       -7.45042        6.67803
C        -15.61980       -8.76747        6.20894
N        -15.82931       -9.84573        5.83619
C        -16.45173       -6.74229        7.21756
N        -17.34741       -6.15409        7.66251
C        -12.46559       -8.72486        5.99264
C        -11.22523       -9.21957        5.48549
C        -10.97674      -10.51389        5.05403
C         -9.71238      -10.60109        4.40185
C         -9.02754       -9.42684        4.42945
S         -9.74368       -8.32462        5.56045
C         -7.95022       -9.39474        3.49597
C         -7.86915      -10.58795        2.79668
S         -8.85153      -11.81253        3.51218
C         -7.06816      -10.85520        1.61983
C         -7.30841      -11.73810        0.58712
C         -6.35722      -11.61473       -0.49635
N         -6.45264      -12.34167       -1.65041
C         -7.52808      -13.19153       -1.64306
C         -7.72265      -13.98587       -2.88025
O         -6.99267      -13.87744       -3.85782
C         -8.85390      -14.93421       -2.92573
C         -9.68302      -15.09158       -1.89335
C         -9.52558      -14.31708       -0.64876
O        -10.29700      -14.52095        0.28002
C         -8.42446      -13.32662       -0.58440
N         -8.36603      -12.59771        0.56229
C         -5.37144      -10.67348       -0.24592
S         -5.63772       -9.96391        1.30682
C         -4.26509      -10.25186       -1.09778
C         -3.99123      -10.70675       -2.37464
C         -2.89399      -10.01421       -2.96067
C         -2.27872       -9.15236       -2.10941
S         -3.11953       -9.05222       -0.59380
C         -1.10357       -8.55932       -2.66614
C         -0.84641       -9.03211       -3.94176
S         -2.16234       -9.99833       -4.52952
C          0.25133       -8.68984       -4.79442
C          0.80860       -9.51385       -5.69604
C          1.55783       -8.90462       -6.84448
O          2.13969       -7.84194       -6.87888
C          1.33210       -9.83249       -7.97527
C          1.63148       -9.60298       -9.30741
C          1.17738      -10.53279      -10.25407
C          0.39669      -11.65403       -9.83282
C         -0.10291      -12.54452      -10.79366
C          0.18655      -12.35315      -12.14017
C          0.96890      -11.28197      -12.54732
C          1.45971      -10.36904      -11.61813
F          1.25690      -11.11431      -13.84509
F         -0.29575      -13.21845      -13.04237
C          0.13187      -11.86228       -8.46720
C          0.63706      -10.97028       -7.53477
C          0.56432      -10.91330       -6.05602
C          0.53700      -11.97334       -5.21214
C          0.76443      -11.83001       -3.81116
N          0.97173      -11.72863       -2.67145
C          0.35968      -13.30751       -5.67472
N          0.20042      -14.38682       -6.07013
H        -14.87949       -2.55709        9.47625
H        -10.83553       -1.55692        6.75619
H        -15.07280       -4.77282        8.41602
H        -11.06950       -3.75915        5.57822
H        -13.05410       -9.46939        6.52200
H        -11.69636      -11.32308        5.08366
H         -7.36019       -8.50876        3.29494
H         -8.97317      -15.49960       -3.84380
H        -10.50974      -15.79367       -1.91926
H         -4.55424      -11.46774       -2.90116
H         -0.46950       -7.85897       -2.13564
H          0.57826       -7.65017       -4.75934
H          2.17755       -8.70847       -9.59563
H         -0.71685      -13.39640      -10.51160
H          2.06164       -9.53781      -11.97549
H         -0.48233      -12.70691       -8.16551
