97

C         -9.47264       -0.54796       -5.30475
C        -10.17312       -0.92384       -6.44783
F        -10.42264       -0.00753       -7.39308
C        -10.60885       -2.23090       -6.61170
F        -11.27381       -2.58670       -7.71914
C        -10.36336       -3.18456       -5.63041
C         -9.67204       -2.82811       -4.46394
C         -9.20546       -1.48814       -4.29796
C         -8.48487       -1.12300       -3.13924
C         -8.25176       -2.06777       -2.14885
C         -8.72980       -3.37051       -2.34232
C         -9.43078       -3.77527       -3.46566
C         -8.34327       -4.22867       -1.21550
O         -8.88045       -5.27497       -0.92499
C         -7.29499       -3.45406       -0.47066
C         -7.53539       -2.03459       -0.84119
C         -7.34553       -0.94210       -0.06200
C         -6.83537       -1.04141        1.26516
N         -6.41624       -1.13477        2.34332
C         -7.72090        0.36964       -0.47289
N         -8.02141        1.43399       -0.81807
C         -6.24565       -3.95816        0.20477
C         -5.91314       -5.33945        0.40429
C         -5.24626       -5.85924        1.52476
C         -5.11834       -7.26812        1.41896
C         -5.62028       -7.70308        0.24571
S         -6.14598       -6.56146       -0.84321
C         -5.60768       -9.05192        0.22169
C         -5.04845       -9.50983        1.36112
N         -4.69272       -8.39428        2.06958
C         -4.00784       -8.39601        3.33418
C         -5.06597      -10.92594        1.38998
C         -5.72795      -11.42563        0.26214
S         -6.18372      -10.17032       -0.87488
C         -6.08659      -12.81096       -0.02245
N         -6.16803      -13.28471       -1.29563
N         -6.52130      -14.65486       -1.61436
C         -6.81347      -15.59141       -0.67068
C         -6.74074      -15.13489        0.66092
C         -6.37917      -13.75636        0.98235
N         -6.40452      -13.62909        2.31997
O         -6.75211      -14.86253        2.82345
N         -6.95502      -15.78209        1.81893
C         -7.19571      -16.95200       -1.03408
C         -8.03191      -17.82798       -0.33104
C         -8.08358      -19.08556       -0.98037
C         -7.34880      -19.06529       -2.11078
S         -6.55428      -17.65377       -2.50849
C         -7.42027      -20.27214       -2.70746
C         -8.15432      -21.11025       -1.94703
N         -8.60761      -20.34781       -0.90497
C         -9.51065      -20.79681        0.12083
C         -8.16411      -22.41287       -2.50825
C         -7.38979      -22.44976       -3.67530
S         -6.80331      -20.85209       -4.13954
C         -7.17894      -23.59407       -4.50725
C         -6.09384      -23.86888       -5.24602
C         -6.24629      -24.91300       -6.31319
O         -7.07240      -25.79865       -6.38261
C         -5.21883      -24.59437       -7.32073
C         -5.06497      -25.20928       -8.55310
C         -4.06778      -24.72782       -9.40923
C         -3.27787      -23.60488       -9.01533
C         -2.29266      -23.12260       -9.88981
C         -2.07647      -23.74689      -11.11442
C         -2.83663      -24.84505      -11.49005
C         -3.83338      -25.33482      -10.65206
F         -2.61414      -25.44838      -12.66558
F         -1.11818      -23.28071      -11.92666
C         -3.47548      -23.00212       -7.75590
C         -4.42181      -23.52388       -6.88543
C         -4.79813      -23.21806       -5.47618
C         -3.96356      -22.71323       -4.53423
C         -4.23481      -22.83288       -3.13804
N         -4.41767      -22.96550       -2.00086
C         -2.70927      -22.11917       -4.85547
N         -1.69838      -21.62079       -5.13239
H         -9.14770        0.48548       -5.21474
H        -10.71724       -4.19975       -5.79070
H         -8.11147       -0.10631       -3.05531
H         -9.75832       -4.80807       -3.55596
H         -5.52494       -3.27504        0.64758
H         -4.93363       -5.26661        2.37567
H         -3.79543       -9.42323        3.64112
H         -4.64274       -7.91020        4.07886
H         -3.06823       -7.84912        3.21691
H         -4.67801      -11.53335        2.19789
H         -8.54801      -17.58648        0.58966
H        -10.04885      -21.68271       -0.22612
H        -10.23057      -20.00053        0.33054
H         -8.93117      -21.03180        1.01645
H         -8.66764      -23.27309       -2.08431
H         -8.02836      -24.27664       -4.57129
H         -5.70842      -26.04084       -8.82939
H         -1.67264      -22.26869       -9.62800
H         -4.41009      -26.19588      -10.97946
H         -2.87358      -22.13821       -7.48838
