97

C         -0.15869      -17.68490       -4.09221
C         -1.08729      -18.31435       -4.91938
F         -0.72693      -19.42112       -5.58324
C         -2.37248      -17.80888       -5.05707
F         -3.26306      -18.42942       -5.84277
C         -2.74849      -16.65363       -4.38509
C         -1.82616      -15.99614       -3.56065
C         -0.50946      -16.52207       -3.38965
C          0.41244      -15.87814       -2.52663
C          0.04301      -14.71443       -1.86490
C         -1.24792      -14.22447       -2.08656
C         -2.19007      -14.82435       -2.90454
C         -1.45225      -12.98452       -1.34852
O         -2.23435      -12.13348       -1.71096
C         -0.35284      -12.93063       -0.32257
C          0.72141      -13.79821       -0.89353
C          2.05344      -13.66455       -0.70304
C          2.61079      -12.66163        0.13700
N          3.05915      -11.84865        0.83321
C          3.00716      -14.47749       -1.38688
N          3.77992      -15.14620       -1.94176
C         -0.41984      -12.44478        0.93543
C         -1.56718      -11.88074        1.59080
C         -1.90334      -11.87886        2.94299
C         -3.22668      -11.38782        3.18997
O         -3.83281      -11.31013        4.40299
C         -2.89950      -10.96582        5.43124
C         -1.92605      -12.10514        5.69676
S         -0.86325      -12.45284        4.25503
C         -3.87247      -11.01044        2.03066
S         -2.72575      -10.91779        0.77205
C         -5.20436      -10.50849        1.80087
C         -6.02197      -10.66612        0.69754
C         -7.17396       -9.78417        0.73942
N         -8.07211       -9.68550       -0.28409
C         -7.74335      -10.49656       -1.33973
C         -8.66032      -10.40381       -2.50182
O         -9.65980       -9.69472       -2.49944
C         -8.33990      -11.19520       -3.70462
C         -7.29432      -12.02134       -3.74101
C         -6.40060      -12.20467       -2.57774
O         -5.52116      -13.05515       -2.64554
C         -6.64223      -11.35706       -1.37648
N         -5.74100      -11.49314       -0.35693
C         -7.22605       -9.01482        1.89063
S         -5.92762       -9.45042        2.93264
C         -8.08951       -7.89742        2.24212
C         -8.56401       -7.46658        3.47216
C         -9.19143       -6.18101        3.39099
O         -9.73016       -5.46301        4.41670
C         -9.20773       -5.80696        5.70123
C         -9.46598       -7.26350        6.04792
S         -8.42483       -8.32854        5.01274
C         -9.27385       -5.67552        2.09947
S         -8.60265       -6.80811        1.01572
C         -9.83818       -4.40673        1.74109
C        -10.45652       -4.04074        0.60973
C        -11.45917       -2.93163        0.77085
O        -11.43980       -2.00135        1.54810
C        -12.55398       -3.27949       -0.15441
C        -13.80829       -2.69790       -0.18129
C        -14.77224       -3.26373       -1.01989
C        -14.44818       -4.41343       -1.80764
C        -15.44638       -4.98513       -2.61097
C        -16.72521       -4.43411       -2.64047
C        -17.02945       -3.31158       -1.88359
C        -16.06417       -2.72328       -1.07499
F        -18.26146       -2.78590       -1.91967
F        -17.66556       -5.00192       -3.40781
C        -13.14772       -4.96263       -1.76693
C        -12.19185       -4.38074       -0.94805
C        -10.75600       -4.66048       -0.68030
C         -9.85448       -4.99769       -1.63533
C         -8.46581       -4.71469       -1.46689
N         -7.34504       -4.42741       -1.34505
C        -10.24661       -5.45081       -2.92800
N        -10.58904       -5.79670       -3.98104
H          0.83658      -18.11382       -4.01240
H         -3.76093      -16.27792       -4.51155
H          1.39491      -16.32141       -2.39372
H         -3.17811      -14.37926       -3.00806
H          0.42226      -12.61217        1.60225
H         -3.48658      -10.77746        6.33747
H         -2.39074      -10.02145        5.19123
H         -2.47616      -13.02116        5.93310
H         -1.28408      -11.85850        6.54841
H         -9.00569      -11.07422       -4.55312
H         -7.06375      -12.61090       -4.62291
H         -9.73509       -5.17521        6.42537
H         -8.14640       -5.53228        5.76462
H        -10.51308       -7.52760        5.86853
H         -9.22945       -7.45710        7.09820
H         -9.92150       -3.71443        2.58353
H        -14.02674       -1.84939        0.46179
H        -15.24787       -5.86410       -3.21899
H        -16.33778       -1.84857       -0.49063
H        -12.91719       -5.84387       -2.36134
