103

C        -10.71997       -0.38670       -4.12236
C        -12.09356       -0.43585       -3.89330
F        -12.91547        0.27041       -4.68124
C        -12.61111       -1.21306       -2.86703
F        -13.93462       -1.27317       -2.66564
C        -11.76391       -1.94414       -2.04314
C        -10.37959       -1.90807       -2.25125
C         -9.83791       -1.12767       -3.31722
C         -8.44370       -1.12767       -3.56099
C         -7.59909       -1.88984       -2.75967
C         -8.16971       -2.63578       -1.71877
C         -9.52496       -2.65497       -1.43602
C         -7.15446       -3.45892       -1.04770
O         -7.30727       -4.04624        0.00171
C         -5.93118       -3.35880       -1.91013
C         -6.13167       -2.17644       -2.78280
C         -5.16519       -1.42159       -3.36851
C         -3.77781       -1.71570       -3.21614
N         -2.65263       -1.96249       -3.09104
C         -5.45949       -0.25310       -4.12161
N         -5.70368        0.70092       -4.73886
C         -5.00306       -4.32596       -2.00329
C         -5.07253       -5.55787       -1.28929
C         -4.51612       -5.89000       -0.05045
C         -4.74600       -7.26520        0.23364
C         -5.45291       -7.83814       -0.76156
S         -5.89629       -6.89992       -2.06448
C         -5.65083       -9.14091       -0.48164
C         -5.04236       -9.45741        0.67788
N         -4.52935       -8.27051        1.14347
C         -3.90240       -8.07355        2.42329
C         -5.17369      -10.85347        0.93475
C         -5.87110      -11.49287       -0.10692
S         -6.48079      -10.33229       -1.28930
C         -6.17825      -12.94649       -0.28517
C         -6.45201      -13.83316        0.78500
C         -6.73047      -15.24845        0.58169
N         -6.96375      -16.04971        1.64450
C         -6.94552      -15.50550        2.87687
C         -6.70876      -14.16730        3.07097
N         -6.45906      -13.33033        2.04086
F         -6.71030      -13.65570        4.30952
F         -7.15375      -16.31739        3.92265
C         -6.78014      -15.84193       -0.69730
C         -6.47416      -14.98856       -1.80009
C         -6.16649      -13.52646       -1.59161
N         -5.88247      -12.90738       -2.75207
S         -6.06810      -13.98806       -3.97631
N         -6.40238      -15.33776       -3.09805
C         -7.11990      -17.27645       -0.92958
C         -6.77795      -18.41065       -0.16884
C         -7.25614      -19.59904       -0.79153
C         -7.96712      -19.28315       -1.88829
S         -8.18482      -17.68259       -2.27272
C         -8.39029      -20.40550       -2.49100
C         -7.91278      -21.48482       -1.84387
N         -7.29567      -20.97355       -0.72746
C         -6.78392      -21.75650        0.36562
C         -8.22722      -22.66777       -2.57551
C         -8.86102      -22.33669       -3.78459
S         -9.33931      -20.63571       -3.82982
C         -9.25193      -23.20264       -4.85857
C         -9.27235      -22.84545       -6.15583
C        -10.17269      -23.60682       -7.08661
O        -10.54757      -24.75560       -6.99257
C        -10.61871      -22.60347       -8.08171
C        -11.62700      -22.75992       -9.02007
C        -12.01122      -21.63899       -9.77114
C        -11.39407      -20.37346       -9.52588
C        -11.82214      -19.24849      -10.24630
C        -12.81739      -19.37254      -11.20975
C        -13.39899      -20.60572      -11.46643
C        -13.00943      -21.73532      -10.75221
F        -14.34650      -20.72015      -12.40703
F        -13.20648      -18.28745      -11.89291
C        -10.36510      -20.25862       -8.57265
C         -9.94978      -21.38633       -7.87958
C         -8.89598      -21.61159       -6.86054
C         -7.71366      -20.95438       -6.77228
C         -6.63932      -21.43961       -5.96675
N         -5.75010      -21.85154       -5.34454
C         -7.43249      -19.78513       -7.53266
N         -7.22675      -18.82478       -8.15204
H        -10.35654        0.23040       -4.94060
H        -12.20230       -2.54809       -1.25170
H         -8.06694       -0.55502       -4.40407
H         -9.89895       -3.27335       -0.62352
H         -4.20893       -4.27923       -2.74244
H         -3.97445       -5.19591        0.57887
H         -3.85571       -9.02004        2.96678
H         -4.50012       -7.35441        2.99115
H         -2.89321       -7.68459        2.26551
H         -4.76257      -11.36200        1.79760
H         -6.20108      -18.38281        0.74667
H         -7.15505      -22.78248        0.29015
H         -7.13696      -21.31885        1.30411
H         -5.69298      -21.74616        0.32489
H         -7.94364      -23.67479       -2.29287
H         -9.65075      -24.17563       -4.57108
H        -12.11108      -23.72555       -9.14188
H        -11.38741      -18.26665      -10.07460
H        -13.49293      -22.68253      -10.97590
H         -9.92390      -19.28408       -8.38184
