90

C         -4.40361        0.67536        7.24798
C         -4.47187        0.42659        8.61772
F         -4.72684        1.44005        9.45700
C         -4.28290       -0.85521        9.11281
F         -4.36516       -1.09138       10.42919
C         -4.00646       -1.90859        8.24938
C         -3.92065       -1.68111        6.86817
C         -4.13610       -0.37031        6.34765
C         -4.09062       -0.14580        4.94995
C         -3.82340       -1.20173        4.08246
C         -3.60425       -2.47062        4.63619
C         -3.64067       -2.73553        5.99641
C         -3.41868       -3.47883        3.58331
O         -3.03888       -4.61527        3.76325
C         -3.77036       -2.78608        2.29850
C         -3.75165       -1.32858        2.59347
C         -3.54879       -0.32291        1.70502
C         -3.33685       -0.56660        0.31379
N         -3.16820       -0.77402       -0.81474
C         -3.46935        1.04310        2.09290
N         -3.41413        2.16023        2.41291
C         -4.22116       -3.42558        1.20471
C         -4.33515       -4.84391        1.10116
C         -3.39844       -5.74496        0.62986
C         -3.89494       -7.08676        0.64852
C         -5.18188       -7.17372        1.08967
S         -5.82794       -5.60659        1.51176
C         -5.68319       -8.51415        1.09389
C         -4.72633       -9.42394        0.67557
S         -3.24641       -8.65302        0.22921
C         -4.83398      -10.85879        0.58983
C         -4.48417      -11.55321        1.69503
C         -4.63683      -12.99309        1.78873
C         -4.78680      -13.77703        0.69969
C         -4.79278      -13.12071       -0.67371
C         -5.35772      -11.65529       -0.60838
N         -5.16071      -10.92437       -1.88034
C         -4.08019      -11.23690       -2.51205
C         -3.10754      -12.27618       -2.03987
N         -3.40122      -13.19124       -1.18120
F         -1.87121      -12.26623       -2.55275
F         -3.82532      -10.61798       -3.67132
C         -4.92651      -15.18835        0.92342
C         -3.93025      -16.14764        0.97193
C         -4.45659      -17.44214        1.26928
C         -5.81424      -17.44732        1.37131
S         -6.49821      -15.86191        1.13748
C         -6.34999      -18.74339        1.62563
C         -5.35665      -19.69466        1.79580
S         -3.78491      -19.03321        1.52042
C         -5.48057      -21.09359        2.07429
C         -6.46217      -21.61845        2.82391
C         -6.82147      -23.06356        2.62286
O         -6.11784      -23.96227        2.21694
C         -8.27073      -23.13307        2.91160
C         -9.11284      -24.20779        2.67124
C        -10.48925      -24.02365        2.86701
C        -10.98653      -22.74316        3.26267
C        -12.36899      -22.55563        3.40313
C        -13.24285      -23.61614        3.18965
C        -12.75928      -24.86696        2.83372
C        -11.39364      -25.07656        2.66389
F        -13.60678      -25.88782        2.64743
F        -14.55981      -23.41789        3.33646
C        -10.09726      -21.68190        3.51269
C         -8.73381      -21.89150        3.37610
C         -7.55401      -21.02025        3.59644
C         -7.44269      -20.05255        4.53931
C         -6.18185      -19.49362        4.90726
N         -5.16241      -19.05062        5.24297
C         -8.55736      -19.59730        5.29740
N         -9.48380      -19.22549        5.89004
H         -4.56267        1.69407        6.90232
H         -3.86639       -2.90155        8.66923
H         -4.29597        0.85644        4.58333
H         -3.48115       -3.75018        6.35329
H         -4.59575       -2.87791        0.34611
H         -2.40605       -5.46735        0.29538
H         -6.68449       -8.78636        1.40435
H         -4.11146      -11.05359        2.58724
H         -4.60983      -13.41622        2.79078
H         -5.42883      -13.70521       -1.35297
H         -6.44605      -11.73679       -0.47278
H         -2.87926      -15.93277        0.82217
H         -7.41240      -18.94068        1.68266
H         -4.80672      -21.76603        1.54092
H         -8.70390      -25.15121        2.31856
H        -12.78475      -21.59129        3.68488
H        -11.05279      -26.06805        2.37751
H        -10.49437      -20.71088        3.79636
