120

C        -10.41061       -3.94783        9.15647
C        -11.27374       -2.86171        9.02020
F        -11.46069       -2.03965       10.06505
C        -11.92670       -2.62349        7.81784
F        -12.73474       -1.55812        7.68944
C        -11.73465       -3.46432        6.73400
C        -10.86887       -4.56254        6.84813
C        -10.17887       -4.80779        8.06971
C         -9.26892       -5.88605        8.17060
C         -9.04588       -6.71264        7.07366
C         -9.74369       -6.43610        5.89276
C        -10.65411       -5.40198        5.75368
C         -9.30873       -7.30985        4.80225
O         -9.83871       -7.35482        3.71791
C         -8.12304       -8.07023        5.33311
C         -8.12384       -7.86435        6.81247
C         -7.52350       -8.62508        7.76068
C         -6.72480       -9.75949        7.43208
N         -6.06502      -10.67627        7.16545
C         -7.67179       -8.39174        9.16623
N         -7.78922       -8.19694       10.29004
C         -7.18228       -8.60941        4.53410
C         -7.18479       -8.47098        3.11185
C         -6.50034       -7.53808        2.37205
C         -6.80665       -7.49736        0.94830
C         -6.33298       -6.37979        0.03202
C         -5.30044       -5.48730        0.41687
C         -4.64361       -4.63254       -0.48474
C         -5.10026       -4.52538       -1.78160
C         -6.28833       -5.16289       -2.10970
C         -6.95638       -5.99331       -1.17687
O         -8.29860       -6.28126       -1.32275
C         -8.96647       -5.75596       -2.47168
O         -4.98484       -5.22070        1.73505
C         -6.01924       -4.38389        2.29457
C         -7.22113       -8.82000        0.62220
S         -8.00641       -9.50367        2.05320
C         -7.18147       -9.70625       -0.54232
C         -7.52187       -9.20827       -1.74650
C         -7.40635       -9.90834       -3.00257
C         -7.37083      -11.24717       -3.04267
C         -7.39901      -12.01458       -1.74396
C         -6.73537      -11.19773       -0.58004
N         -6.84923      -11.96077        0.68714
C         -7.92205      -12.67367        0.79409
C         -9.00529      -12.71137       -0.24397
N         -8.80853      -12.39570       -1.47884
F        -10.22958      -13.11379        0.11828
F         -8.06415      -13.45271        1.87351
C         -7.27960      -11.90227       -4.29712
C         -8.18763      -12.75861       -4.84767
C         -7.64921      -13.60881       -5.88414
C         -8.35222      -14.87871       -6.24742
C         -9.78039      -14.96092       -6.23333
C        -10.45750      -16.15028       -6.55470
C         -9.74908      -17.31535       -6.79552
C         -8.36134      -17.29374       -6.71213
C         -7.66921      -16.10322       -6.42056
O         -6.30392      -16.23756       -6.39484
C         -5.74706      -16.18068       -5.08284
O        -10.55508      -13.86220       -5.91671
C        -11.53622      -14.13401       -4.90012
C         -6.39014      -13.12520       -6.32716
S         -5.88615      -11.86471       -5.21861
C         -5.44640      -13.56529       -7.35798
C         -4.19676      -13.07791       -7.55587
C         -3.07102      -14.01336       -7.96170
O         -3.06758      -14.85481       -8.83111
C         -1.96491      -13.68678       -6.99591
C         -0.70817      -14.23293       -6.83975
C          0.09255      -13.74642       -5.78020
C         -0.45316      -12.82715       -4.82465
C          0.30339      -12.39851       -3.73082
C          1.62934      -12.78613       -3.62484
C          2.19852      -13.61076       -4.58630
C          1.43846      -14.11213       -5.64397
F          3.49927      -13.92223       -4.51160
F          2.36297      -12.32572       -2.60301
C         -1.71424      -12.27857       -5.02193
C         -2.38208      -12.63011       -6.17425
C         -3.48929      -11.99270       -6.88754
C         -3.37811      -10.69913       -7.28285
C         -3.89518      -10.26664       -8.53678
N         -4.19576       -9.91348       -9.60013
C         -2.53193       -9.77068       -6.60242
N         -1.84233       -9.04080       -6.01751
H         -9.91351       -4.09146       10.11104
H        -12.25405       -3.24727        5.80617
H         -8.73206       -6.01640        9.10714
H        -11.14671       -5.24127        4.79801
H         -6.26557       -9.02293        4.94285
H         -5.86289       -6.84393        2.89418
H         -3.82435       -4.00557       -0.14210
H         -4.61469       -3.85644       -2.48699
H         -6.70628       -4.94094       -3.08721
H         -8.90618       -4.66249       -2.50737
H        -10.02375       -6.02584       -2.40321
H         -8.57128       -6.20138       -3.39253
H         -7.00235       -4.87076        2.27445
H         -6.08375       -3.42212        1.77592
H         -5.76859       -4.20155        3.34334
H         -7.91007       -8.22481       -1.86962
H         -7.39107       -9.30342       -3.90601
H         -6.82670      -12.94500       -1.87501
H         -5.65684      -11.16941       -0.79559
H         -9.15016      -12.88498       -4.37314
H        -11.54346      -16.16862       -6.60956
H        -10.27844      -18.23381       -7.03493
H         -7.80769      -18.21509       -6.87647
H         -5.84017      -17.15031       -4.58580
H         -6.18276      -15.39949       -4.45408
H         -4.68054      -15.95878       -5.19832
H        -12.51215      -14.30159       -5.36617
H        -11.61659      -13.25441       -4.25263
H        -11.27466      -14.98579       -4.25816
H         -5.70998      -14.47940       -7.88805
H         -0.34414      -14.97581       -7.54344
H         -0.10786      -11.72728       -2.98056
H          1.92499      -14.75096       -6.37538
H         -2.12029      -11.52989       -4.34585
