89

C         -1.76939        0.31198        6.19271
C         -1.39188       -0.09725        7.47024
F         -1.33068        0.80751        8.45675
C         -1.08794       -1.42647        7.72591
F         -0.75023       -1.81759        8.96218
C         -1.12774       -2.36644        6.70346
C         -1.48366       -1.97529        5.40505
C         -1.83890       -0.61685        5.14139
C         -2.26783       -0.23059        3.84831
C         -2.32459       -1.17451        2.82983
C         -1.91712       -2.48670        3.11833
C         -1.50453       -2.91154        4.37002
C         -2.08728       -3.34892        1.94209
O         -1.54925       -4.41951        1.76103
C         -2.96905       -2.56445        1.02000
C         -2.82000       -1.14632        1.41905
C         -2.96566       -0.06621        0.61868
C         -2.70903        1.25690        1.06459
N         -2.50432        2.33279        1.44357
C         -3.32971       -0.19024       -0.75344
N         -3.64043       -0.31297       -1.86350
C         -3.90437       -3.12055        0.22955
C         -4.13111       -4.52358        0.17064
C         -3.60268       -5.44161       -0.71237
C         -4.03358       -6.76638       -0.40336
C         -4.90117       -6.82135        0.64502
S         -5.25806       -5.23400        1.26829
C         -5.28811       -8.15464        0.98247
C         -4.69172       -9.08986        0.15277
S         -3.68696       -8.34424       -1.03628
C         -4.78404      -10.55511        0.23151
C         -4.94237      -11.26234        1.43867
F         -5.03917      -10.57288        2.58955
C         -5.00564      -12.67533        1.53576
F         -5.18666      -13.17398        2.77125
C         -4.91255      -13.55701        0.43537
C         -4.77834      -12.88158       -0.80610
C         -4.72644      -11.40077       -0.90392
N         -4.63870      -11.08634       -2.20831
N         -4.57639      -12.27191       -2.80877
N         -4.67290      -13.37357       -2.05790
C         -4.42567      -12.35716       -4.24114
C         -4.96491      -15.02646        0.50474
C         -5.39502      -15.92908       -0.45547
C         -5.28889      -17.28036       -0.00808
C         -4.83127      -17.37515        1.26757
S         -4.40273      -15.82901        1.92585
C         -4.83709      -18.70707        1.76704
C         -5.22882      -19.62077        0.80324
S         -5.63661      -18.84797       -0.68677
C         -5.39754      -21.03625        0.91213
C         -4.67020      -21.81487        1.72660
C         -5.25404      -23.12601        2.16489
O         -6.08130      -23.80561        1.59703
C         -4.69245      -23.35812        3.51357
C         -5.08233      -24.33524        4.41401
C         -4.53859      -24.29552        5.70560
C         -3.64216      -23.24267        6.06782
C         -3.14635      -23.18248        7.37794
C         -3.50246      -24.15610        8.30487
C         -4.35054      -25.19402        7.94621
C         -4.87517      -25.26756        6.65908
F         -4.67557      -26.13702        8.84076
F         -3.01334      -24.08342        9.55013
C         -3.25898      -22.27738        5.11843
C         -3.75575      -22.35976        3.82677
C         -3.52862      -21.55051        2.60501
C         -2.37279      -20.93036        2.26399
C         -2.12523      -20.45239        0.94190
N         -1.89622      -20.08016       -0.13367
C         -1.28922      -20.79377        3.17244
N         -0.42104      -20.67166        3.93443
H         -2.00535        1.36170        6.03702
H         -0.88447       -3.39992        6.93692
H         -2.57912        0.79828        3.69004
H         -1.24308       -3.95482        4.52928
H         -4.62559       -2.51164       -0.30710
H         -2.91057       -5.19789       -1.50843
H         -5.94942       -8.39926        1.80512
H         -4.33279      -11.34914       -4.65552
H         -5.31076      -12.84813       -4.65135
H         -3.52293      -12.93188       -4.45958
H         -5.77657      -15.65298       -1.43069
H         -4.57462      -18.94912        2.78830
H         -6.25534      -21.46932        0.39572
H         -5.80768      -25.08896        4.11824
H         -2.47644      -22.38682        7.69462
H         -5.54180      -26.09101        6.41683
H         -2.59024      -21.47460        5.41755
