105

C         -2.04972       -1.67849       -7.37073
C         -2.82763       -1.74397       -8.52564
F         -2.39219       -1.14787       -9.64392
C         -4.03968       -2.41886       -8.52482
F         -4.77235       -2.49653       -9.64398
C         -4.51019       -3.01644       -7.36268
C         -3.75811       -2.93983       -6.18230
C         -2.49060       -2.28296       -6.18181
C         -1.70252       -2.25504       -5.00406
C         -2.18022       -2.84030       -3.83576
C         -3.44988       -3.43388       -3.87274
C         -4.24292       -3.50759       -5.00525
C         -3.79002       -4.01963       -2.57387
O         -4.90339       -4.34555       -2.22203
C         -2.50755       -4.02931       -1.80025
C         -1.61475       -3.04984       -2.46759
C         -0.57388       -2.38090       -1.90297
C         -0.19794       -2.58176       -0.54082
N          0.10432       -2.75406        0.56465
C          0.17605       -1.39346       -2.60422
N          0.78524       -0.59151       -3.18360
C         -2.22781       -4.95838       -0.87384
C         -3.12935       -6.00539       -0.51512
C         -4.11044       -6.00167        0.47893
C         -4.68604       -7.29385        0.59815
C         -4.18451       -8.12963       -0.33482
S         -3.00683       -7.54325       -1.36001
C         -4.75849       -9.34423       -0.20206
C         -5.62460       -9.32532        0.83045
N         -5.57099       -8.04768        1.32198
C         -6.29264       -7.56162        2.46692
C         -6.22241      -10.60242        1.00557
C         -5.79209      -11.49855        0.01389
S         -4.54414      -10.78065       -1.01320
C         -6.20332      -12.92024       -0.19604
C         -6.54658      -13.79631        0.86587
C         -6.89670      -15.17940        0.64234
N         -7.13023      -15.97176        1.71438
C         -7.11305      -15.46559        2.96933
C         -6.83282      -14.14763        3.17679
N         -6.53524      -13.32024        2.13838
C         -6.83898      -13.55437        4.48004
N         -6.86039      -13.09102        5.54429
C         -7.40105      -16.39392        4.02650
N         -7.62608      -17.12479        4.89683
C         -6.99756      -15.75660       -0.65058
C         -6.68681      -14.89994       -1.74435
C         -6.28793      -13.46273       -1.51618
N         -6.06360      -12.82053       -2.67634
S         -6.25408      -13.89097       -3.90915
N         -6.70579      -15.22231       -3.05131
C         -7.39035      -17.17103       -0.92922
C         -7.00484      -18.01127       -1.98967
C         -7.54256      -19.31565       -1.82140
C         -8.29443      -19.36792       -0.70637
S         -8.54465      -17.96611        0.14353
C         -8.71898      -20.62693       -0.50126
C         -8.29939      -21.40930       -1.51398
N         -7.59604      -20.58048       -2.34810
C         -7.04487      -20.96606       -3.61976
C         -8.75353      -22.73861       -1.32811
C         -9.46799      -22.84847       -0.12787
S         -9.62948      -21.31216        0.71212
C        -10.12283      -23.97496        0.45487
C         -9.72970      -25.25025        0.31347
C        -10.73924      -26.31841        0.61464
O        -11.73722      -26.23958        1.29817
C        -10.31020      -27.48725       -0.17571
C        -10.98890      -28.68860       -0.29701
C        -10.43540      -29.67639       -1.12116
C         -9.23851      -29.40208       -1.85038
C         -8.69275      -30.39583       -2.67487
C         -9.30082      -31.64340       -2.76016
C        -10.45863      -31.91353       -2.04481
C        -11.03456      -30.93915       -1.23499
F        -11.03083      -33.12242       -2.12260
F         -8.74913      -32.58769       -3.53414
C         -8.59545      -28.15760       -1.71971
C         -9.10279      -27.21675       -0.83843
C         -8.59806      -25.90496       -0.34439
C         -7.28821      -25.56294       -0.25407
C         -6.83015      -24.51562        0.59600
N         -6.40644      -23.70388        1.31217
C         -6.25586      -26.27623       -0.92653
N         -5.43262      -26.84272       -1.51384
H         -1.10419       -1.14413       -7.41667
H         -5.46378       -3.53743       -7.39376
H         -0.72250       -1.78946       -5.05128
H         -5.20298       -4.01602       -4.96018
H         -1.24380       -5.03137       -0.41674
H         -4.36226       -5.14092        1.08429
H         -6.91669       -8.35724        2.88035
H         -6.91937       -6.72438        2.15011
H         -5.56932       -7.23306        3.21853
H         -6.92713      -10.84226        1.79103
H         -6.35067      -17.72393       -2.80276
H         -7.05171      -22.05583       -3.70995
H         -6.01815      -20.60013       -3.69062
H         -7.66349      -20.52903       -4.40846
H         -8.57001      -23.54825       -2.01996
H        -11.05980      -23.77188        0.97592
H        -11.91315      -28.84802        0.25284
H         -7.78091      -30.22448       -3.24174
H        -11.94021      -31.18706       -0.68780
H         -7.69698      -27.96975       -2.29983
