85

C          0.80474      -10.06967      -10.40841
C          0.91160      -11.48209      -10.28839
F          1.65652      -12.20141      -11.16260
C          0.29134      -12.15983       -9.23699
F          0.48362      -13.48903       -9.04074
C         -0.51999      -11.46787       -8.36933
C         -0.62662      -10.08436       -8.47224
C          0.08043       -9.31918       -9.43807
C          0.06487       -7.85731       -9.32909
C         -0.64455       -7.24734       -8.20531
C         -1.39553       -8.12427       -7.46521
C         -1.41474       -9.47031       -7.55797
C         -2.16050       -7.50594       -6.51398
O         -3.25893       -7.90198       -6.17280
C         -1.63509       -6.25451       -6.23040
C         -0.83463       -5.82795       -7.53099
C         -1.52640       -4.92406       -8.30497
C         -2.96150       -5.02236       -8.39374
N         -4.11166       -5.11421       -8.45607
C         -0.99253       -3.73104       -8.95319
N         -0.67060       -2.75831       -9.50103
C         -1.96557       -5.72086       -4.98680
C         -2.79054       -6.49338       -3.85392
C         -3.60309       -5.82609       -2.94883
C         -4.33059       -6.61444       -2.06506
C         -4.15838       -8.01719       -2.05992
Se        -2.94429       -8.36188       -3.43560
C         -4.61492       -8.80116       -0.76192
C         -4.20540      -10.02652       -0.08072
C         -3.73176       -9.77190        1.23658
N         -3.07780      -10.73141        1.93835
C         -3.11996      -12.02375        1.52423
C         -2.38176      -13.08599        2.25757
O         -1.52731      -12.79183        3.07962
C         -2.65320      -14.51075        1.96607
C         -3.62756      -14.84871        1.10953
C         -4.36218      -13.80152        0.33590
O         -5.34936      -14.12434       -0.30728
C         -3.95172      -12.35839        0.43745
N         -4.38461      -11.35175       -0.42589
C         -3.99019       -8.48948        1.70350
S         -4.76139       -7.71576        0.49560
C         -3.62894       -7.78120        2.94407
C         -3.46646       -6.40375        2.89600
C         -2.48178       -5.97220        3.75610
C         -1.89036       -7.02274        4.47013
Se        -2.94345       -8.51667        4.44901
C         -0.48477       -7.10496        5.06758
C          0.71816       -6.52114        4.66412
C          2.01076       -6.69753        5.33185
O          2.24066       -7.49439        6.22763
C          2.99361       -5.75997        4.76625
C          4.33829       -5.66275        5.13645
C          5.17333       -4.71700        4.52917
C          4.63596       -3.81434        3.56725
C          5.52384       -2.82769        3.03534
C          6.89166       -2.80088        3.40054
C          7.40202       -3.74493        4.28926
C          6.54702       -4.68178        4.86567
F          8.72941       -3.75554        4.59412
F          7.73769       -1.87429        2.87397
C          3.25163       -3.96671        3.14951
C          2.42542       -4.98286        3.75398
C          1.05053       -5.63929        3.49584
C          0.48472       -5.86554        2.27343
C         -0.06450       -7.18477        2.02747
N         -0.50658       -8.23312        1.81357
C          0.52505       -5.10725        1.05735
N          0.48335       -4.60842        0.01411
H          1.33159       -9.59552      -11.22360
H         -1.02515      -11.99947       -7.56497
H          0.65653       -7.27997      -10.03609
H         -1.99852      -10.02846       -6.83711
H         -1.62505       -4.70375       -4.77147
H         -3.71691       -4.75156       -2.88768
H         -4.95297       -6.10036       -1.34785
H         -2.08756      -15.28887        2.47874
H         -3.86121      -15.90531        0.97582
H         -3.79967       -5.74306        2.09535
H         -2.11472       -4.96343        3.65536
H         -0.41551       -7.77838        5.91758
H          4.73848       -6.33750        5.88154
H          5.18975       -2.07955        2.32915
H          6.97223       -5.39653        5.56245
H          2.86513       -3.33268        2.36124
