115

C         -3.44003        2.89087        1.22390
C         -4.16741        3.36101        2.31480
F         -4.55913        4.64202        2.33530
C         -4.48857        2.51818        3.36979
F         -5.18990        2.97925        4.41402
C         -4.09162        1.18730        3.35434
C         -3.35778        0.69193        2.26910
C         -3.01891        1.55455        1.17973
C         -2.28498        1.05919        0.07856
C         -1.89152       -0.27125        0.06918
C         -2.26619       -1.08823        1.13499
C         -2.97293       -0.64765        2.23849
C         -1.88142       -2.47154        0.85976
O         -1.79617       -3.32972        1.71089
C         -1.56669       -2.52004       -0.62024
C         -1.19202       -1.12124       -0.93390
C         -0.18005       -0.69979       -1.72624
C          0.38794        0.59842       -1.55367
N          0.85681        1.63898       -1.34309
C          0.47254       -1.55409       -2.65703
N          0.98187       -2.23039       -3.45070
C         -1.77653       -3.57818       -1.43329
C         -2.36659       -4.88870       -1.04122
C         -2.00524       -6.08570       -1.69703
C         -2.55363       -7.31105       -1.24197
C         -3.40924       -7.35834       -0.14549
C         -3.83501       -6.15838        0.44146
C         -3.35431       -4.94737       -0.05409
C         -3.67998       -8.72374        0.13810
C         -3.14181       -9.49405       -0.89023
N         -2.41482       -8.62034       -1.68517
C         -1.61342       -8.99357       -2.83099
C         -3.39730      -10.88676       -0.97183
C         -4.16118      -11.52492        0.03492
C         -4.57002      -10.73735        1.12612
C         -4.37308       -9.35687        1.17732
C         -4.58847      -12.94389       -0.03797
C         -5.77835      -13.43324        0.55572
F         -6.59324      -12.57680        1.19859
C         -6.23171      -14.77302        0.51031
F         -7.36693      -15.02567        1.18741
C         -5.59622      -15.82693       -0.18179
C         -4.38843      -15.39215       -0.79074
C         -3.89254      -13.97914       -0.71677
N         -2.73012      -13.92783       -1.39559
N         -2.57512      -15.17890       -1.83275
N         -3.50171      -16.08986       -1.52719
C         -1.42694      -15.54703       -2.62542
C         -6.17136      -17.18449       -0.31506
C         -5.38425      -18.35290       -0.42665
C         -6.01359      -19.61122       -0.58895
C         -7.39842      -19.73043       -0.63825
C         -8.18987      -18.58323       -0.49125
C         -7.57014      -17.34040       -0.34586
C         -7.71235      -21.09236       -0.89708
C         -6.52242      -21.81897       -0.90582
N         -5.50360      -20.89204       -0.74941
C         -4.08801      -21.18024       -0.83418
C         -6.52314      -23.22445       -1.06875
C         -7.74747      -23.87848       -1.31126
C         -8.91080      -23.11317       -1.44457
C         -8.92381      -21.75002       -1.15923
C         -7.78697      -25.35037       -1.47160
C         -8.79876      -26.18160       -1.15899
C         -8.79273      -27.59814       -1.66367
O         -7.85171      -28.23935       -2.08123
C        -10.20086      -28.04701       -1.60180
C        -10.68981      -29.30468       -1.92118
C        -12.05990      -29.54769       -1.73468
C        -12.92070      -28.47849       -1.34253
C        -14.28864      -28.72023       -1.15624
C        -14.79242      -30.00746       -1.29626
C        -13.95494      -31.05566       -1.65003
C        -12.60071      -30.83327       -1.88940
F        -14.44173      -32.30015       -1.74701
F        -16.09220      -30.22994       -1.05891
C        -12.39318      -27.20498       -1.07669
C        -11.02020      -27.01592       -1.11679
C        -10.13353      -25.94465       -0.58899
C        -10.44591      -25.14991        0.46572
C         -9.44593      -24.55708        1.28816
N         -8.64930      -24.11412        2.01327
C        -11.78868      -24.88752        0.86575
N        -12.88615      -24.64046        1.13923
H         -3.21122        3.58247        0.41767
H         -4.36479        0.55082        4.19221
H         -2.06073        1.71711       -0.75777
H         -3.23604       -1.34830        3.02657
H         -1.57612       -3.49865       -2.50025
H         -1.31023       -6.08629       -2.52997
H         -4.54191       -6.16128        1.26542
H         -3.75345       -4.04577        0.39956
H         -1.66104      -10.07032       -3.00059
H         -0.57706       -8.70293       -2.63777
H         -2.00034       -8.46855       -3.70839
H         -3.03340      -11.44852       -1.82652
H         -5.09730      -11.17813        1.96956
H         -4.76028       -8.78128        2.01264
H         -0.80028      -14.66682       -2.79012
H         -1.78095      -15.93758       -3.58257
H         -0.86534      -16.30990       -2.08096
H         -4.30000      -18.29339       -0.40382
H         -9.27342      -18.65124       -0.50868
H         -8.23119      -16.47862       -0.27301
H         -3.92631      -22.22694       -1.09727
H         -3.63286      -20.96479        0.13519
H         -3.65413      -20.54747       -1.61392
H         -5.59730      -23.78877       -1.00620
H         -9.85307      -23.56098       -1.74205
H         -9.85688      -21.19515       -1.17829
H         -6.89910      -25.76818       -1.94978
H        -10.00821      -30.08573       -2.24886
H        -14.96982      -27.92659       -0.85823
H        -11.97585      -31.68075       -2.15801
H        -13.07083      -26.40963       -0.78270
