117

C        -14.99796       -3.96937        0.54405
C        -14.77236       -2.67771        1.01941
F        -15.82432       -1.89417        1.30819
C        -13.48286       -2.20128        1.18793
F        -13.27440       -0.95850        1.64971
C        -12.38814       -3.00389        0.88472
C        -12.58571       -4.30457        0.39899
C        -13.91068       -4.80288        0.22832
C        -14.12329       -6.11788       -0.24336
C        -13.04112       -6.92833       -0.56508
C        -11.75457       -6.41904       -0.37354
C        -11.49811       -5.12711        0.09152
C        -10.73715       -7.42990       -0.66563
O         -9.54377       -7.21785       -0.70852
C        -11.49001       -8.71221       -0.91739
C        -12.92159       -8.33213       -1.07576
C        -13.90778       -9.04712       -1.67228
C        -13.68353      -10.33614       -2.23916
N        -13.50868      -11.39066       -2.69024
C        -15.23931       -8.56249       -1.82549
N        -16.32942       -8.17225       -1.94158
C        -10.94442       -9.93872       -0.80824
C         -9.61181      -10.16654       -0.36311
C         -9.19733      -10.33222        0.93830
C         -7.77479      -10.45524        1.08397
C         -7.13848      -10.54568       -0.14776
S         -8.29701      -10.36895       -1.43564
C         -5.74555      -10.77161       -0.24441
O         -5.24543      -10.80990       -1.54215
C         -4.09090      -11.58576       -1.81116
C         -4.95625      -10.82572        0.94379
C         -5.60244      -10.58495        2.16678
C         -7.00282      -10.48225        2.25738
O         -7.75107      -10.50336        3.43259
C         -7.23389       -9.89582        4.60614
S         -4.45207      -10.41335        3.41913
C         -3.14940      -10.98835        2.51294
C         -3.55951      -11.14412        1.20258
C         -1.87000      -11.25595        3.18224
C         -1.51190      -10.81385        4.48106
F         -2.34556      -10.02045        5.17601
C         -0.31907      -11.16142        5.15072
F         -0.16238      -10.66433        6.38975
C          0.66994      -11.99342        4.60595
C          0.37099      -12.44781        3.29448
C         -0.88317      -12.08326        2.59120
N         -0.86992      -12.69824        1.39181
N          0.28510      -13.36876        1.40685
N          1.06723      -13.26736        2.48298
C          0.64794      -14.24163        0.31614
C          1.83859      -12.50206        5.31808
C          3.07197      -12.88723        4.83248
C          3.79415      -13.74102        5.74170
C          3.13545      -13.82745        6.96366
S          1.76043      -12.79957        7.00116
C          3.55459      -14.71594        7.95697
O          2.78984      -14.80288        9.11627
C          3.53343      -14.86660       10.33170
C          4.55324      -15.66208        7.65457
C          5.28751      -15.52590        6.47180
C          4.94401      -14.53523        5.52644
O          5.48728      -14.46485        4.24720
C          6.90724      -14.44129        4.16755
S          6.50500      -16.75144        6.39469
C          5.96926      -17.54177        7.80555
C          4.87687      -16.88696        8.32229
C          6.59225      -18.74510        8.22913
C          6.64274      -19.15541        9.50365
C          6.94048      -20.60182        9.74658
O          7.45793      -21.39668        8.99152
C          6.39735      -20.89016       11.08502
C          6.41642      -22.11528       11.72526
C          5.87615      -22.18567       13.01277
C          5.23154      -21.04322       13.57970
C          4.69253      -21.13045       14.87032
C          4.83853      -22.30092       15.60729
C          5.48897      -23.40064       15.06510
C          5.98974      -23.35912       13.76836
F          5.65700      -24.51135       15.79486
F          4.36550      -22.34742       16.85982
C          5.19073      -19.82758       12.87319
C          5.84964      -19.73107       11.65722
C          6.22545      -18.58247       10.79100
C          6.47281      -17.32829       11.24496
C          7.23682      -16.38575       10.49441
N          7.87550      -15.60705        9.91901
C          6.07476      -16.87966       12.53747
N          5.70912      -16.51038       13.57533
H        -16.01998       -4.30914        0.42666
H        -11.38966       -2.60165        1.03521
H        -15.14778       -6.46789       -0.32430
H        -10.47283       -4.79077        0.22104
H        -11.54328      -10.83899       -0.88693
H         -9.87185      -10.29582        1.78567
H         -4.00846      -11.69876       -2.89718
H         -4.15626      -12.58772       -1.37550
H         -3.18914      -11.05427       -1.49901
H         -8.05121       -9.82654        5.33000
H         -6.86823       -8.88230        4.41480
H         -6.48108      -10.52959        5.08102
H         -2.87553      -11.51206        0.45438
H          0.05488      -13.98392       -0.56516
H          0.44173      -15.26984        0.62297
H          1.71066      -14.11004        0.09885
H          3.37643      -12.74297        3.80188
H          3.30962      -13.98769       10.94228
H          4.61812      -14.91870       10.20165
H          3.19951      -15.75424       10.88035
H          7.18001      -13.90942        3.25029
H          7.29197      -15.45857        4.05763
H          7.37534      -13.92626        5.01216
H          4.29988      -17.25874        9.15867
H          6.95980      -19.40708        7.44375
H          6.88239      -22.97141       11.24444
H          4.19180      -20.28459       15.33501
H          6.49699      -24.23690       13.37699
H          4.68721      -18.97481       13.31993
