91

C         -8.44558        1.26333        3.25819
C         -9.20746        1.20799        4.42351
F         -9.92620        2.27868        4.78717
C         -9.22991        0.05851        5.20005
F         -9.98499        0.00325        6.30543
C         -8.46666       -1.04591        4.84328
C         -7.67380       -1.00391        3.68809
C         -7.67985        0.15673        2.85866
C         -6.93409        0.17656        1.65493
C         -6.16734       -0.92617        1.29214
C         -6.14255       -2.01729        2.17036
C         -6.87727       -2.09363        3.34209
C         -5.27480       -3.07805        1.65953
O         -4.82970       -3.99157        2.32077
C         -4.99979       -2.71775        0.23197
C         -5.33463       -1.27301        0.09355
C         -4.90129       -0.41433       -0.86170
C         -4.04343       -0.82206       -1.92589
N         -3.35977       -1.15938       -2.79692
C         -5.23218        0.97224       -0.86579
N         -5.50790        2.09928       -0.87090
C         -4.71796       -3.64474       -0.70064
C         -4.66396       -5.04639       -0.42435
C         -3.56577       -5.81236       -0.08844
C         -3.89320       -7.19944       -0.01467
C         -5.21767       -7.45555       -0.20194
S         -6.10565       -5.99325       -0.55139
C         -5.54045       -8.84416       -0.07497
C         -4.41046       -9.61874        0.15991
S         -2.97956       -8.65215        0.24878
C         -4.33163      -11.14255        0.25252
C         -3.17703      -11.57663        1.19528
N         -5.51220      -11.60985        0.84303
N         -6.33505      -12.73347        0.37747
C         -6.11913      -13.46158       -0.78242
C         -5.10382      -12.79773       -1.58148
C         -4.24856      -11.71705       -1.08401
N         -3.39633      -11.39088       -2.07319
O         -3.73114      -12.17027       -3.15579
N         -4.77566      -13.01920       -2.86806
C         -7.47006      -13.64895       -1.52770
C         -5.66661      -14.89778       -0.44615
C         -4.82266      -15.72935       -1.16935
C         -4.48898      -16.91018       -0.44444
C         -5.15584      -17.02588        0.73430
S         -6.21117      -15.66683        1.01056
C         -4.81525      -18.21420        1.45157
C         -3.88262      -18.98453        0.77510
S         -3.38552      -18.22703       -0.70002
C         -3.26636      -20.18879        1.24617
C         -2.84982      -21.22140        0.49737
C         -1.88224      -22.19151        1.11068
O         -1.68168      -22.40467        2.28739
C         -1.15305      -22.78686       -0.02675
C         -0.08591      -23.66680        0.04887
C          0.50906      -24.08541       -1.14827
C          0.05244      -23.55128       -2.39236
C          0.67397      -23.95901       -3.58190
C          1.69761      -24.90064       -3.54930
C          2.12319      -25.43776       -2.34291
C          1.54598      -25.03016       -1.14412
F          3.09354      -26.36148       -2.32194
F          2.26166      -25.29409       -4.69927
C         -1.02856      -22.64838       -2.42422
C         -1.66870      -22.30826       -1.24158
C         -2.90213      -21.53667       -0.93335
C         -3.99306      -21.46115       -1.73520
C         -5.27857      -21.11287       -1.21898
N         -6.33413      -20.88488       -0.79746
C         -3.96814      -21.83037       -3.10356
N         -3.92827      -22.11594       -4.23173
H         -8.45936        2.18126        2.67598
H         -8.50281       -1.93078        5.47366
H         -7.00118        1.06156        1.02962
H         -6.83245       -2.99408        3.94962
H         -4.60679       -3.38707       -1.74861
H         -2.57048       -5.41968        0.07392
H         -6.54101       -9.25020       -0.17251
H         -3.24023      -11.04481        2.15193
H         -2.20069      -11.34239        0.75574
H         -3.21332      -12.65735        1.37258
H         -7.88158      -12.66968       -1.79836
H         -8.19336      -14.17172       -0.89099
H         -7.34769      -14.25632       -2.43153
H         -4.39432      -15.49208       -2.13534
H         -5.23307      -18.47639        2.41642
H         -3.06118      -20.21577        2.31791
H          0.25898      -24.02065        1.01719
H          0.36089      -23.56888       -4.54726
H          1.90543      -25.47208       -0.21852
H         -1.35470      -22.24865       -3.38052
