91

C          4.21794       -7.83012        0.66889
C          4.74855       -8.80466       -0.17204
F          5.88685       -9.42015        0.17563
C          4.10336       -9.14702       -1.35159
F          4.60900      -10.10081       -2.14526
C          2.92122       -8.51384       -1.71852
C          2.36498       -7.53033       -0.88840
C          3.01714       -7.18491        0.33473
C          2.44066       -6.23331        1.20480
C          1.22759       -5.64370        0.87277
C          0.61338       -6.01015       -0.33356
C          1.15745       -6.91541       -1.22969
C         -0.73061       -5.42201       -0.42865
O         -1.42208       -5.40145       -1.42385
C         -1.00700       -4.86537        0.93773
C          0.30873       -4.72073        1.60057
C          0.64548       -3.83899        2.57199
C         -0.29239       -2.90802        3.11253
N         -1.04973       -2.15916        3.56024
C          1.97184       -3.73055        3.08015
N          3.05237       -3.65885        3.49403
C         -2.22734       -4.81474        1.49752
C         -3.40652       -5.28513        0.84948
C         -4.42308       -4.57742        0.24169
O         -4.35476       -3.22257        0.16365
C         -4.99674       -2.68326       -0.98686
C         -5.48754       -5.42260       -0.19702
C         -5.26061       -6.77081        0.03417
S         -3.73617       -6.97307        0.80831
C         -6.07251       -7.95101       -0.35969
C         -6.23731       -9.12665        0.40110
C         -6.88264      -10.31652       -0.12120
N         -6.96533      -11.41105        0.67818
C         -6.46781      -11.35784        1.93031
C         -5.90186      -10.21892        2.42791
N         -5.78054       -9.11293        1.67397
C         -7.43699      -10.37882       -1.43418
C         -7.41238       -9.15383       -2.17002
C         -6.72648       -7.92696       -1.62141
N         -6.80452       -6.87459       -2.45876
S         -7.68885       -7.33621       -3.76561
N         -7.91704       -8.91804       -3.39286
C         -8.00455      -11.62100       -2.05765
C         -9.04979      -11.83320       -2.95336
O         -9.74264      -10.78436       -3.45998
C        -11.04893      -11.07267       -3.92381
C         -9.24702      -13.21391       -3.28294
C         -8.38647      -14.06434       -2.62048
S         -7.23409      -13.13949       -1.74606
C         -8.28454      -15.48553       -2.74036
C         -7.96715      -16.32763       -1.74506
C         -7.38398      -17.65912       -2.11623
O         -7.54115      -18.28827       -3.14079
C         -6.47099      -17.99657       -1.00226
C         -5.53790      -19.02102       -0.98271
C         -4.65490      -19.08849        0.10383
C         -4.71926      -18.09927        1.13360
C         -3.80051      -18.15133        2.19203
C         -2.85218      -19.16768        2.24667
C         -2.80298      -20.13956        1.25794
C         -3.69173      -20.10543        0.18728
F         -1.89379      -21.12155        1.32391
F         -1.98548      -19.19924        3.26816
C         -5.69280      -17.08252        1.08326
C         -6.59026      -17.04844        0.02671
C         -7.71963      -16.14608       -0.31169
C         -8.52607      -15.49970        0.56399
C         -9.77415      -14.93676        0.16770
N        -10.81706      -14.52180       -0.13420
C         -8.24115      -15.43598        1.96007
N         -7.98547      -15.37662        3.08443
H          4.74907       -7.59692        1.58826
H          2.43692       -8.81256       -2.64459
H          2.93593       -6.02202        2.14843
H          0.61577       -7.16958       -2.13738
H         -2.36666       -4.51726        2.53155
H         -4.85921       -1.59783       -0.97000
H         -6.07453       -2.87328       -0.97746
H         -4.54151       -3.06823       -1.90632
H         -6.38506       -5.06102       -0.68014
H         -6.54656      -12.26200        2.52207
H         -5.52900      -10.15277        3.44276
H        -11.65895      -11.46840       -3.10733
H        -11.04661      -11.74901       -4.78450
H        -11.49267      -10.12821       -4.25395
H         -9.98897      -13.58080       -3.98124
H         -8.37109      -15.88168       -3.75252
H         -5.48744      -19.72636       -1.80868
H         -3.80889      -17.40925        2.98641
H         -3.61861      -20.87956       -0.57200
H         -5.71146      -16.32701        1.86412
