141

C         -8.22971       -2.50292       11.56384
C         -8.50883       -3.26641       12.69608
F         -9.19947       -2.71406       13.70251
C         -8.09068       -4.58651       12.78244
F         -8.38744       -5.32150       13.86282
C         -7.36015       -5.16132       11.75045
C         -7.05116       -4.40622       10.61074
C         -7.51462       -3.05775       10.49259
C         -7.27422       -2.31332        9.31003
C         -6.56725       -2.89475        8.27110
C         -6.06820       -4.19058        8.46369
C         -6.29777       -4.96841        9.58406
C         -5.33823       -4.61391        7.27475
O         -4.41484       -5.39605        7.25931
C         -5.85901       -3.74227        6.18257
C         -6.24548       -2.49021        6.86476
C         -6.15631       -1.24975        6.34639
C         -5.72540       -0.99951        5.00891
N         -5.39306       -0.80695        3.92656
C         -6.42726       -0.10714        7.13245
N         -6.63457        0.82023        7.79572
C         -6.20147       -4.14829        4.94911
C         -6.14665       -5.50129        4.49367
C         -5.96971       -6.69908        5.14063
C         -6.02539       -7.89600        4.34221
C         -5.87712       -9.25806        4.71982
C         -5.68429       -9.63388        6.18321
C         -6.11459       -9.02788        7.36393
C         -5.78117       -9.74752        8.56493
C         -5.10308      -10.91025        8.29711
S         -4.73245      -11.01146        6.64834
C         -4.63820      -11.98140        9.22615
C         -5.93465      -10.24792        3.70639
C         -6.11633       -9.94055        2.34728
C         -6.29815       -8.56925        1.96426
C         -6.24745       -7.56776        2.99256
S         -6.43919       -5.83765        2.87312
C         -6.55177       -8.22931        0.49634
C         -6.62406       -9.02059       -0.65058
C         -6.92774       -8.33967       -1.86820
C         -7.05967       -6.99624       -1.66798
S         -6.83157       -6.60901       -0.04885
C         -7.36239       -5.92837       -2.65198
C         -6.07019      -11.17470        1.58291
C         -5.93601      -12.34241        2.29214
S         -5.83721      -11.94974        3.91122
C         -5.88468      -13.70634        1.80180
C         -5.73989      -14.90222        2.51410
C         -5.79428      -14.98923        3.93643
N         -5.93624      -15.05941        5.09894
C         -5.65334      -15.98415        1.62325
C         -5.93038      -15.66768        0.34339
S         -6.09967      -14.03246        0.09001
S         -6.05956      -17.00134       -0.68150
C         -5.66941      -18.00332        0.61822
C         -5.42145      -17.34273        1.76866
C         -4.91906      -18.15028        2.80163
C         -4.32613      -17.70279        4.03260
N         -3.77630      -17.33533        4.97577
C         -4.95548      -19.49284        2.41893
S         -5.50687      -19.65596        0.76140
C         -4.56494      -20.67833        3.15425
C         -5.13082      -21.92605        3.06744
C         -4.47978      -22.96211        3.84548
C         -4.73806      -24.36005        3.96154
C         -5.78793      -25.03062        3.09841
C         -6.58395      -26.15444        3.31545
C         -7.53000      -26.43424        2.28082
C         -7.45182      -25.51699        1.26374
S         -6.11533      -24.48668        1.48166
C         -8.34520      -25.35709        0.08053
C         -4.00928      -25.10905        4.92214
C         -2.94138      -24.56837        5.65886
C         -2.67064      -23.17580        5.52441
C         -3.44965      -22.40024        4.62278
S         -3.28051      -20.71685        4.24914
C         -1.59274      -22.51580        6.34571
C         -1.53567      -21.24678        6.92073
C         -0.30090      -20.95386        7.58631
C          0.56778      -22.01700        7.54814
S         -0.08451      -23.30591        6.65092
C          1.94700      -22.12917        8.10478
C         -2.29630      -25.61815        6.43334
C         -2.88692      -26.85575        6.36745
S         -4.30298      -26.71917        5.44989
C         -2.52886      -28.05370        7.05945
C         -2.78455      -29.28895        6.60140
C         -2.96847      -30.39542        7.59569
O         -2.43459      -30.53100        8.67509
C         -4.06266      -31.21723        7.02639
C         -4.78611      -32.19776        7.67887
C         -5.93210      -32.69703        7.04441
C         -6.34064      -32.16840        5.77912
C         -7.52840      -32.62744        5.19276
C         -8.28287      -33.60895        5.82618
C         -7.87008      -34.14365        7.03856
C         -6.70617      -33.69340        7.65303
F         -8.59687      -35.09763        7.63578
F         -9.41535      -34.03595        5.25133
C         -5.56103      -31.19316        5.13420
C         -4.39722      -30.75352        5.74314
C         -3.38657      -29.74993        5.35155
C         -2.95903      -29.45557        4.09934
C         -1.82835      -28.62344        3.85584
N         -0.91032      -27.95561        3.65134
C         -3.58622      -29.99428        2.95846
N         -4.13367      -30.43840        2.02643
H         -8.58163       -1.47515       11.53478
H         -7.04579       -6.19760       11.84960
H         -7.67905       -1.30863        9.22866
H         -5.92186       -5.98764        9.62748
H         -6.66909       -3.43873        4.26507
H         -5.79185       -6.74613        6.19391
H         -6.67930       -8.10753        7.40750
H         -6.05541       -9.43420        9.56516
H         -3.79235      -11.63174        9.82483
H         -4.31628      -12.88263        8.68927
H         -5.44597      -12.28131        9.90270
H         -6.48778      -10.07778       -0.71245
H         -7.03466       -8.82934       -2.82783
H         -6.61018       -5.92472       -3.44597
H         -7.36913       -4.93424       -2.19165
H         -8.34717       -6.09986       -3.09582
H         -6.13720      -11.25689        0.52363
H         -5.98842      -22.08566        2.43156
H         -6.56129      -26.76561        4.20366
H         -8.25801      -27.23673        2.32156
H         -8.67978      -26.32649       -0.30330
H         -7.85029      -24.82494       -0.73788
H         -9.23248      -24.78093        0.36805
H         -2.32656      -20.50948        6.85673
H         -0.06803      -20.00248        8.05237
H          2.21269      -21.24955        8.70027
H          2.67236      -22.21302        7.28861
H          2.04925      -23.01058        8.74801
H         -1.41160      -25.49253        7.03781
H         -2.15056      -27.92786        8.07343
H         -4.48485      -32.52903        8.66909
H         -7.88216      -32.23387        4.24316
H         -6.41880      -34.12803        8.60647
H         -5.89533      -30.77462        4.18818
