100

C         -8.36568        2.60110        2.62900
C         -8.93532        2.75576        3.89015
F         -9.80721        3.75202        4.09767
C         -8.61308        1.88563        4.92134
F         -9.18263        2.02660        6.12605
C         -7.69956        0.85714        4.71714
C         -7.10098        0.68717        3.46009
C         -7.45213        1.56276        2.38658
C         -6.90199        1.36720        1.10029
C         -6.00985        0.32417        0.88680
C         -5.67151       -0.50555        1.96753
C         -6.18329       -0.34639        3.24412
C         -4.81240       -1.61233        1.51471
O         -4.13458       -2.33226        2.21497
C         -4.91449       -1.58277        0.02132
C         -5.34417       -0.21560       -0.33296
C         -5.04243        0.45586       -1.46830
C         -5.38954        1.82443       -1.65954
N         -5.67535        2.93821       -1.80027
C         -4.27700       -0.14157       -2.51190
N         -3.65401       -0.63584       -3.35736
C         -4.93620       -2.68584       -0.74444
C         -4.83673       -4.05663       -0.24691
C         -3.64341       -4.78341       -0.10542
C         -3.61288       -6.15323        0.29800
C         -4.76338       -6.91656        0.62452
C         -5.97939       -6.18925        0.52098
C         -6.01538       -4.77428        0.07357
N         -7.30331       -4.37379        0.03722
N         -7.95110       -5.46338        0.47405
N         -7.24852       -6.56630        0.77190
C         -9.38483       -5.46077        0.64153
C         -4.73767       -8.34759        0.99913
C         -4.84366       -9.29761        0.05121
C         -4.68201      -10.70837        0.34202
C         -4.69721      -11.21407        1.59120
C         -4.95315      -10.26131        2.75111
C         -4.46671       -8.78519        2.43175
N         -4.96342       -7.80251        3.41654
C         -6.13065       -8.06421        3.89584
C         -6.91877       -9.29154        3.55905
N         -6.40485      -10.35361        3.04278
F         -8.22500       -9.30722        3.85638
F         -6.65461       -7.20705        4.78189
C         -4.49454      -12.66155        1.85476
C         -5.03257      -13.36917        2.95956
C         -4.79546      -14.75134        3.22747
C         -3.98195      -15.57201        2.42175
C         -3.46634      -14.91587        1.27332
C         -3.69179      -13.47773        1.01037
N         -2.98146      -13.15595       -0.09073
N         -2.42863      -14.31081       -0.44940
N         -2.70009      -15.39888        0.27305
C         -1.37227      -14.33205       -1.43384
C         -3.72862      -16.99076        2.72690
C         -2.64201      -17.72993        2.44357
C         -2.77189      -19.22636        2.40805
O         -3.53082      -19.92903        3.04036
C         -1.83980      -19.65827        1.34160
C         -1.75669      -20.91624        0.77022
C         -0.95893      -21.06823       -0.37312
C         -0.30030      -19.93210       -0.93846
C          0.42281      -20.07966       -2.13093
C          0.53123      -21.32947       -2.73112
C         -0.06993      -22.44105       -2.15811
C         -0.81841      -22.31909       -0.99111
F          0.06004      -23.64584       -2.72974
F          1.22800      -21.45019       -3.86929
C         -0.37960      -18.67901       -0.30436
C         -1.11192      -18.55718        0.86613
C         -1.37921      -17.41680        1.77258
C         -0.52759      -16.40555        2.06507
C         -0.78067      -15.49254        3.13470
N         -0.97106      -14.75630        4.00673
C          0.67281      -16.19276        1.33749
N          1.63053      -16.00563        0.70020
H         -8.64980        3.29956        1.84588
H         -7.47377        0.19103        5.54584
H         -7.22275        2.01465        0.28866
H         -5.90166       -1.04274        4.02981
H         -5.21206       -2.63743       -1.79484
H         -2.69481       -4.29015       -0.32140
H         -2.63214       -6.62648        0.34822
H         -9.75737       -4.43397        0.60577
H         -9.61700       -5.90448        1.61336
H         -9.82561       -6.05487       -0.16275
H         -4.98438       -9.06732       -1.00009
H         -4.55502      -11.33918       -0.53452
H         -4.40385      -10.59638        3.64198
H         -3.37185       -8.79550        2.54124
H         -5.68286      -12.83999        3.65791
H         -5.26315      -15.17991        4.11589
H         -1.68104      -13.73530       -2.29405
H         -1.17956      -15.36396       -1.73860
H         -0.47819      -13.90649       -0.96969
H         -4.58890      -17.49836        3.16826
H         -2.32819      -21.74105        1.18746
H          0.91037      -19.23265       -2.60683
H         -1.28474      -23.20921       -0.57748
H          0.10912      -17.81909       -0.75361
