137

C         -5.08771        0.44114       -6.71504
C         -4.15850        0.27902       -7.74263
F         -3.69262        1.36620       -8.37314
C         -3.71275       -0.98268       -8.11130
F         -2.80686       -1.12252       -9.08643
C         -4.21056       -2.11210       -7.47503
C         -5.16168       -1.96944       -6.45486
C         -5.59670       -0.67783       -6.04067
C         -6.52351       -0.53175       -4.97018
C         -7.03487       -1.66177       -4.34954
C         -6.63202       -2.90199       -4.84014
C         -5.69871       -3.10324       -5.85025
C         -7.36313       -3.96089       -4.16496
O         -7.67477       -4.99802       -4.70881
C         -7.84889       -3.36139       -2.87526
C         -7.96785       -1.91031       -3.19527
C         -8.86612       -1.05192       -2.66745
C         -9.80394       -1.44549       -1.66271
N        -10.54722       -1.76248       -0.83860
C         -8.99905        0.28915       -3.13529
N         -9.09617        1.37239       -3.53001
C         -7.92761       -3.96785       -1.66931
C         -7.56414       -5.32150       -1.35700
C         -7.71845       -6.04084       -0.18771
C         -7.28077       -7.44547       -0.25040
C         -7.29139       -8.49068        0.70986
C         -7.73356       -8.22105        2.11974
C         -8.45312       -9.01160        3.01133
C         -8.63514       -8.42328        4.30256
C         -8.08608       -7.16545        4.37731
S         -7.26197       -6.77007        2.93928
C         -8.07632       -6.21932        5.53108
C         -6.84153       -9.78824        0.33910
C         -6.38543      -10.09216       -0.96156
C         -6.37468       -9.05475       -1.94882
C         -6.77785       -7.74407       -1.52647
S         -6.61445       -6.26485       -2.36185
C         -5.91877       -9.35135       -3.39580
C         -5.50143      -10.52125       -4.03726
C         -5.16049      -10.39453       -5.42766
C         -5.35461       -9.12141       -5.88419
S         -5.89924       -8.13198       -4.63853
C         -5.18838       -8.55934       -7.25270
C         -5.95053      -11.47132       -1.00254
C         -6.08546      -12.18515        0.16043
S         -6.73822      -11.19020        1.35842
C         -5.73626      -13.57597        0.44482
C         -5.28887      -14.02023        1.70761
C         -4.98595      -15.37043        1.99978
C         -5.09292      -16.41592        1.05587
C         -5.50904      -15.99838       -0.23692
C         -5.82119      -14.59473       -0.53942
N         -6.18088      -14.52633       -1.83160
O         -6.10703      -15.81071       -2.32556
N         -5.71563      -16.70619       -1.35837
C         -4.82565      -17.81066        1.40820
C         -5.00308      -18.43661        2.62237
C         -4.61408      -19.83282        2.65189
C         -4.65519      -20.78521        3.70788
C         -5.46354      -20.47458        4.95140
C         -6.62652      -19.71356        5.08276
C         -7.17265      -19.68230        6.40836
C         -6.46827      -20.48485        7.27289
S         -5.06776      -21.08709        6.52225
C         -6.78742      -20.83441        8.69103
C         -3.98667      -22.02157        3.52508
C         -3.51112      -22.44868        2.27257
C         -3.50889      -21.50978        1.20068
C         -4.04554      -20.21052        1.42087
S         -4.17033      -18.90185        0.29526
C         -2.84088      -21.84755       -0.10906
C         -2.11570      -21.04750       -0.99075
C         -1.54819      -21.75122       -2.10076
C         -1.80283      -23.09921       -2.03487
S         -2.91818      -23.43400       -0.79601
C         -1.28270      -24.18967       -2.91086
C         -3.15400      -23.85796        2.35243
C         -3.23969      -24.41831        3.60355
S         -3.46469      -23.15703        4.71388
C         -3.00252      -25.76367        4.01076
C         -3.59938      -26.33320        5.06951
C         -2.90861      -27.46707        5.75874
O         -2.17167      -28.30227        5.27996
C         -3.22279      -27.27862        7.19083
C         -2.63110      -27.92898        8.25946
C         -2.93477      -27.47578        9.54917
C         -3.79035      -26.34396        9.72727
C         -4.03369      -25.86277       11.02104
C         -3.47649      -26.50739       12.11995
C         -2.67319      -27.62603       11.94945
C         -2.39137      -28.10874       10.67498
F         -2.15726      -28.25296       13.01509
F         -3.72939      -26.03945       13.34975
C         -4.38545      -25.72214        8.61548
C         -4.13875      -26.22574        7.34980
C         -4.60916      -25.83369        6.00508
C         -5.82353      -25.32265        5.68545
C         -6.27236      -25.20781        4.33613
N         -6.65991      -25.12775        3.24675
C         -6.75064      -24.92527        6.67476
N         -7.49879      -24.60185        7.51550
H         -5.40845        1.44577       -6.46129
H         -3.84864       -3.08988       -7.78585
H         -6.80565        0.47035       -4.66069
H         -5.41821       -4.11043       -6.13986
H         -8.22495       -3.38766       -0.79921
H         -8.14756       -5.57518        0.68964
H         -8.82897       -9.99940        2.77747
H         -9.14380       -8.90694        5.12921
H         -8.96359       -6.34982        6.16056
H         -8.05843       -5.17396        5.20324
H         -7.19097       -6.40044        6.14854
H         -5.42787      -11.49484       -3.59573
H         -4.82083      -11.21378       -6.04991
H         -4.44635       -9.12503       -7.82348
H         -4.85743       -7.51445       -7.22323
H         -6.14077       -8.59602       -7.79264
H         -5.50382      -11.95861       -1.84616
H         -5.16094      -13.29500        2.51244
H         -4.64938      -15.59321        3.01314
H         -5.38743      -17.90731        3.48542
H         -7.10938      -19.20189        4.25974
H         -8.06870      -19.14192        6.69381
H         -7.10853      -19.94813        9.24796
H         -5.92864      -21.26502        9.21741
H         -7.60105      -21.56835        8.72726
H         -1.95403      -19.98625       -0.86161
H         -0.94822      -21.28960       -2.87651
H         -1.58929      -24.02582       -3.94810
H         -1.64117      -25.17801       -2.60310
H         -0.18693      -24.21668       -2.87823
H         -2.87675      -24.48434        1.52003
H         -2.20994      -26.29989        3.48916
H         -1.93402      -28.74264        8.08067
H         -4.66053      -24.99165       11.19334
H         -1.75116      -28.98154       10.57931
H         -5.01215      -24.84655        8.76080
