141

C         -7.16359        1.54462       -2.95769
C         -6.83561        1.50703       -4.31265
F         -6.47496        2.63944       -4.93048
C         -6.87421        0.31345       -5.01972
F         -6.53795        0.28044       -6.31601
C         -7.26278       -0.86109       -4.39241
C         -7.61125       -0.84148       -3.03743
C         -7.54524        0.37084       -2.28792
C         -7.84824        0.36887       -0.90276
C         -8.23216       -0.81559       -0.27688
C         -8.31206       -1.96914       -1.06795
C         -8.01479       -2.01605       -2.41608
C         -8.68636       -3.12994       -0.27134
O         -9.04264       -4.17342       -0.77135
C         -8.56387       -2.70419        1.16379
C         -8.56047       -1.21031        1.13297
C         -8.93475       -0.36837        2.12671
C         -9.33115       -0.83675        3.41073
N         -9.63911       -1.22583        4.45892
C         -9.01258        1.04531        1.95484
N         -9.07482        2.18945        1.80804
C         -8.27635       -3.52361        2.19484
C         -8.12798       -4.94774        2.14748
C         -7.17539       -5.70972        2.79792
C         -7.17525       -7.13626        2.51202
C         -6.34666       -8.23457        2.93950
C         -5.31539       -8.02262        4.05204
C         -4.80805       -6.86634        4.64700
C         -3.82056       -7.06767        5.66323
C         -3.53063       -8.39410        5.83090
S         -4.60044       -9.34943        4.93019
C         -2.48591       -9.00960        6.69741
C         -6.52599       -9.51030        2.29128
C         -7.51799       -9.73372        1.31719
C         -8.37084       -8.65233        0.97526
C         -8.20752       -7.39424        1.59454
S         -9.25587       -6.01323        1.46709
C         -9.44237       -8.82441       -0.05214
C         -9.81480       -7.98850       -1.10064
C        -10.89967       -8.49511       -1.88218
C        -11.30648       -9.73727       -1.45300
S        -10.51746      -10.17554       -0.00387
C        -12.30678      -10.65282       -2.07455
C         -7.48182      -11.11454        0.83938
C         -6.63017      -11.94725        1.53245
S         -5.59208      -10.96979        2.44596
C         -6.43060      -13.41788        1.47582
C         -6.50707      -14.17828        0.28903
C         -6.27976      -15.61395        0.26488
N         -6.40112      -16.28255       -0.90336
C         -6.67971      -15.59043       -2.02561
C         -6.87316      -14.23266       -2.00337
N         -6.79587      -13.52331       -0.85809
F         -7.15002      -13.57118       -3.13533
F         -6.75247      -16.26824       -3.17952
C         -5.92817      -16.35248        1.42256
C         -5.85235      -15.61812        2.64015
C         -6.13959      -14.14111        2.67472
N         -6.09565      -13.65328        3.92844
S         -5.62215      -14.86647        4.93560
N         -5.51558      -16.10091        3.85096
C         -5.65803      -17.81283        1.46279
C         -5.92081      -18.73208        2.46140
C         -5.54865      -20.10068        2.16916
C         -5.61994      -21.29500        2.93962
C         -6.19972      -21.28439        4.31674
C         -5.77495      -21.91837        5.47880
C         -6.61433      -21.68465        6.60871
C         -7.63867      -20.81579        6.31591
S         -7.69948      -20.48242        4.64310
C         -8.61975      -20.20867        7.26228
C         -5.13301      -22.50692        2.39792
C         -4.75498      -22.61591        1.05620
C         -4.64632      -21.41947        0.30923
C         -5.00435      -20.17881        0.88072
S         -4.81982      -18.59612        0.20533
C         -4.10720      -21.45974       -1.06954
C         -4.57211      -20.84441       -2.22212
C         -3.74455      -21.08090       -3.36016
C         -2.69192      -21.92000       -3.07071
S         -2.63103      -22.28721       -1.40526
C         -1.66969      -22.46612       -4.00871
C         -4.58835      -24.01378        0.69120
C         -4.67734      -24.89714        1.74724
S         -4.81417      -23.99970        3.19147
C         -4.53170      -26.31960        1.75431
C         -5.10722      -27.14596        2.64435
C         -4.50014      -28.50358        2.85140
O         -3.85248      -29.15958        2.06405
C         -4.76324      -28.82566        4.27251
C         -4.21811      -29.86938        5.00044
C         -4.43624      -29.89233        6.38498
C         -5.17685      -28.83950        7.00816
C         -5.32837      -28.83734        8.40518
C         -4.78502      -29.86920        9.16570
C         -4.09685      -30.90897        8.55860
C         -3.91213      -30.92701        7.17872
F         -3.58639      -31.90200        9.30127
F         -4.94443      -29.85272       10.49665
C         -5.73915      -27.81065        6.22784
C         -5.56630      -27.82992        4.85187
C         -6.03077      -26.93373        3.76583
C         -7.21106      -26.26671        3.73374
C         -7.70679      -25.65960        2.54027
N         -8.12580      -25.18059        1.56986
C         -8.07284      -26.19217        4.86356
N         -8.75298      -26.13754        5.80225
H         -7.11730        2.49992       -2.44194
H         -7.28327       -1.78196       -4.96936
H         -7.75068        1.29983       -0.35111
H         -8.07802       -2.96294       -2.94680
H         -8.00529       -3.09023        3.15445
H         -6.46641       -5.19688        3.41866
H         -5.07419       -5.85976        4.39695
H         -3.32811       -6.26924        6.20572
H         -1.52407       -8.50614        6.54473
H         -2.33540      -10.07181        6.47765
H         -2.75732       -8.91183        7.75289
H         -9.34097       -7.03568       -1.31236
H        -11.32973       -7.98379       -2.73616
H        -13.01731      -10.09699       -2.69543
H        -12.87988      -11.20216       -1.32107
H        -11.80020      -11.38152       -2.71811
H         -8.12839      -11.49426        0.05955
H         -6.37090      -18.43258        3.39776
H         -4.88575      -22.53045        5.54545
H         -6.43983      -22.09257        7.59771
H         -9.00226      -20.96159        7.95925
H         -9.47436      -19.75663        6.74994
H         -8.12861      -19.42539        7.85212
H         -5.46269      -20.22742       -2.25547
H         -3.93043      -20.67143       -4.34623
H         -2.16174      -22.96872       -4.84901
H         -1.01018      -23.19675       -3.52893
H         -1.04949      -21.65845       -4.40965
H         -4.41434      -24.34961       -0.32485
H         -3.81780      -26.73115        1.03959
H         -3.60959      -30.61983        4.50224
H         -5.86331      -28.04585        8.91620
H         -3.35638      -31.74844        6.73751
H         -6.27703      -27.00213        6.71772
