88

C        -12.79647       -2.05531       -2.28303
C        -13.98634       -2.74651       -2.50279
F        -14.95194       -2.17314       -3.23371
C        -14.17158       -4.01830       -1.98056
F        -15.30305       -4.69256       -2.22622
C        -13.18820       -4.60580       -1.19430
C        -11.99512       -3.91731       -0.93445
C        -11.77073       -2.63376       -1.51760
C        -10.52849       -1.97784       -1.33783
C         -9.53771       -2.57188       -0.56370
C         -9.83345       -3.79342        0.05683
C        -11.01945       -4.48540       -0.11537
C         -8.68622       -4.26581        0.83498
O         -8.72504       -5.06959        1.74130
C         -7.52388       -3.46609        0.33668
C         -8.10878       -2.23601       -0.26036
C         -7.51863       -1.02638       -0.38787
C         -6.16783       -0.80315        0.01812
N         -5.07241       -0.63940        0.35000
C         -8.20759        0.12248       -0.87726
N         -8.77013        1.04979       -1.28313
C         -6.28165       -3.97893        0.25297
C         -5.98117       -5.33031        0.62604
C         -5.53259       -5.83285        1.83957
F         -5.33268       -5.10340        2.90363
C         -5.37007       -7.23846        1.81373
C         -5.73977       -7.74043        0.59708
S         -6.17459       -6.60289       -0.57303
C         -5.77207       -9.11891        0.49548
C         -5.36968       -9.80941        1.60371
S         -4.92653       -8.61075        2.76271
C         -5.49229      -11.20111        1.39218
F         -5.16009      -12.09287        2.28636
C         -6.03989      -11.49634        0.15278
S         -6.30652      -10.05388       -0.80648
C         -6.37732      -12.80507       -0.37190
N         -6.39148      -13.07226       -1.66620
C         -6.70988      -14.38651       -1.83776
C         -6.96502      -15.12883       -0.72341
S         -6.81619      -14.12516        0.67885
N         -7.25831      -16.44909       -0.89384
C         -7.19282      -16.73381       -2.18263
S         -6.85767      -15.39017       -3.24032
C         -7.36774      -18.07829       -2.69347
C         -6.78345      -18.62456       -3.82512
F         -5.97081      -17.98947       -4.62578
C         -7.13339      -19.97960       -4.00401
C         -7.99326      -20.38928       -3.02363
S         -8.38365      -19.23438       -1.85424
C         -8.42635      -21.69896       -3.11115
C         -7.90410      -22.42756       -4.14013
S         -6.87665      -21.35383       -5.01053
C         -8.38065      -23.75309       -4.10238
F         -8.00255      -24.66621       -4.95600
C         -9.32990      -23.95612       -3.10682
S         -9.50466      -22.51775       -2.10058
C        -10.09928      -25.12245       -2.77997
C        -10.50832      -26.05011       -3.66260
C        -11.02925      -27.37295       -3.16269
O        -11.42072      -27.64478       -2.04772
C        -10.90752      -28.30810       -4.30422
C        -11.25477      -29.64947       -4.33639
C        -11.03956      -30.36177       -5.52800
C        -10.37692      -29.72737       -6.62293
C        -10.12984      -30.45457       -7.79688
C        -10.58330      -31.76360       -7.91505
C        -11.26703      -32.36792       -6.87005
C        -11.48244      -31.68568       -5.67496
F        -11.73721      -33.61521       -7.00671
F        -10.37245      -32.42875       -9.05906
C        -10.02451      -28.36881       -6.54394
C        -10.37493      -27.64146       -5.41583
C        -10.40729      -26.18582       -5.12097
C        -10.70468      -25.23869       -6.04714
C        -11.18593      -23.94978       -5.68216
N        -11.60374      -22.90627       -5.39334
C        -10.67781      -25.49410       -7.44715
N        -10.63795      -25.70790       -8.58631
H        -12.68836       -1.06475       -2.71761
H        -13.36434       -5.60301       -0.79914
H        -10.36939       -1.02969       -1.84349
H        -11.15260       -5.45506        0.35715
H         -5.47156       -3.43062       -0.21835
H        -10.30955      -25.28768       -1.72181
H        -11.71369      -30.11346       -3.46698
H         -9.61486      -30.00728       -8.64374
H        -12.02345      -32.19237       -4.88021
H         -9.52677      -27.89840       -7.38814
