143

C        -11.38631        0.10176        7.75593
C        -12.73751       -0.18732        7.93288
F        -13.61040        0.82002        8.07173
C        -13.18038       -1.50185        7.96629
F        -14.48261       -1.77263        8.12896
C        -12.27935       -2.55196        7.83502
C        -10.91277       -2.28751        7.67407
C        -10.45103       -0.93657        7.62135
C         -9.07660       -0.66178        7.43041
C         -8.17108       -1.71019        7.32355
C         -8.66205       -3.02006        7.39094
C        -10.00118       -3.33780        7.55790
C         -7.57719       -3.98037        7.16729
O         -7.63416       -5.16498        7.45912
C         -6.42967       -3.18216        6.63004
C         -6.70058       -1.78548        7.07060
C         -5.79163       -0.82724        7.37055
C         -6.16727        0.42748        7.96386
N         -6.48005        1.42832        8.44391
C         -4.39362       -1.02133        7.20287
N         -3.26018       -1.18467        7.04564
C         -5.50710       -3.65177        5.76399
C         -5.52364       -4.96894        5.18374
C         -6.58483       -5.75792        4.78978
C         -6.26323       -7.07585        4.27822
C         -7.09314       -8.16683        3.87813
C         -8.59142       -8.07317        3.97013
C         -9.57857       -8.58782        3.13308
C        -10.91224       -8.41037        3.61911
C        -10.93961       -7.71002        4.80118
S         -9.36565       -7.34114        5.33125
C        -12.11990       -7.34480        5.63637
C         -6.50329       -9.38613        3.44537
C         -5.11069       -9.55164        3.38034
C         -4.27999       -8.43436        3.72161
C         -4.86980       -7.22372        4.18937
S         -4.08307       -5.76475        4.75824
C         -2.78573       -8.53668        3.63938
C         -1.82836       -7.58689        3.28970
C         -0.47642       -8.03223        3.45144
C         -0.41703       -9.32409        3.91476
S         -1.96829       -9.98140        4.10823
C          0.76643      -10.12675        4.32738
C         -4.80295      -10.92344        2.98549
C         -5.88152      -11.74423        2.72799
S         -7.30725      -10.85572        2.97332
C         -5.88196      -13.22998        2.36911
C         -7.04421      -13.53660        1.38671
N         -4.70740      -13.55045        1.67595
N         -3.87489      -14.75716        1.87146
C         -3.96602      -15.64065        2.93903
C         -5.02285      -15.19806        3.83449
C         -5.91208      -14.05495        3.57105
N         -6.75300      -13.95112        4.61495
O         -6.39867      -14.93297        5.50833
N         -5.34833      -15.68968        5.04404
C         -2.57318      -15.66636        3.65663
C         -4.14049      -17.10634        2.49088
C         -4.78264      -18.16726        3.10491
C         -4.72918      -19.44066        2.39633
C         -5.28532      -20.71740        2.71441
C         -6.31702      -20.80729        3.81091
C         -7.26848      -19.87323        4.21687
C         -8.19421      -20.36460        5.19313
C         -7.94722      -21.67598        5.52124
S         -6.48384      -22.19466        4.83273
C         -8.74206      -22.58824        6.39438
C         -4.91150      -21.85768        1.94524
C         -4.11148      -21.74886        0.79665
C         -3.63865      -20.45298        0.42729
C         -3.93285      -19.32356        1.24582
S         -3.42017      -17.66882        1.05183
C         -2.79658      -20.32326       -0.80495
C         -1.79440      -21.15487       -1.29402
C         -1.23352      -20.72263       -2.53764
C         -1.79040      -19.54301       -2.97271
S         -3.04550      -19.03742       -1.93525
C         -1.47456      -18.75104       -4.19781
C         -3.95376      -23.06133        0.16834
C         -4.59559      -24.10904        0.80074
S         -5.27848      -23.52782        2.23210
C         -4.61307      -25.49978        0.45887
C         -5.60998      -26.38309        0.65176
C         -5.26373      -27.83941        0.49770
O         -4.27411      -28.32088       -0.01450
C         -6.35469      -28.59254        1.13907
C         -6.45057      -29.97622        1.21802
C         -7.59954      -30.53228        1.79232
C         -8.60087      -29.67371        2.33555
C         -9.76244      -30.24044        2.88212
C         -9.94437      -31.62120        2.87203
C         -8.97089      -32.45428        2.34132
C         -7.79785      -31.92268        1.81353
F         -9.15852      -33.78081        2.31784
F        -11.07877      -32.13765        3.36499
C         -8.44097      -28.27244        2.27698
C         -7.33547      -27.71927        1.63497
C         -6.98378      -26.33084        1.18194
C         -7.89718      -25.33864        1.00180
C         -7.68125      -24.30319        0.05801
N         -7.54698      -23.48107       -0.76550
C         -9.16658      -25.31674        1.64399
N        -10.18369      -25.28874        2.19513
H        -11.08153        1.14512        7.73327
H        -12.65975       -3.57034        7.86313
H         -8.75894        0.37439        7.34919
H        -10.31067       -4.37936        7.57214
H         -4.72981       -2.99135        5.38469
H         -7.59695       -5.40981        4.91920
H         -9.37350       -9.13376        2.22117
H        -11.79844       -8.80211        3.13227
H        -12.92142       -6.91770        5.02407
H        -11.87000       -6.61233        6.41175
H        -12.50773       -8.24073        6.13183
H         -2.06077       -6.57552        2.98089
H          0.39728       -7.41147        3.28735
H          1.67223       -9.80981        3.80290
H          0.62390      -11.19693        4.13920
H          0.92543       -9.99143        5.40276
H         -3.80952      -11.33986        2.91570
H         -7.00019      -12.86436        0.52176
H         -8.01645      -13.38536        1.86752
H         -6.98919      -14.57702        1.04702
H         -2.32944      -14.66902        4.03918
H         -1.78510      -15.97380        2.95787
H         -2.56483      -16.39185        4.47815
H         -5.26397      -18.06184        4.06807
H         -7.35254      -18.87568        3.80605
H         -9.02341      -19.79396        5.59526
H         -8.70578      -22.24866        7.43352
H         -8.37447      -23.62028        6.36165
H         -9.79004      -22.60740        6.07390
H         -1.46846      -22.06039       -0.79843
H         -0.45953      -21.25463       -3.07955
H         -0.60570      -19.16021       -4.72490
H         -1.25053      -17.70656       -3.95289
H         -2.32406      -18.76969       -4.88819
H         -3.39820      -23.22741       -0.74551
H         -3.67465      -25.87308        0.04383
H         -5.66321      -30.59739        0.79954
H        -10.55492      -29.62101        3.29669
H         -7.05993      -32.60535        1.40065
H         -9.22285      -27.65314        2.70225
