119

C         -8.09134      -22.02043       -3.40281
C         -7.45901      -21.97582       -4.64248
F         -7.92341      -22.73841       -5.64159
C         -6.36405      -21.14934       -4.84805
F         -5.77500      -21.09487       -6.05027
C         -5.86544      -20.36954       -3.81143
C         -6.47300      -20.41139       -2.54912
C         -7.62068      -21.23440       -2.33910
C         -8.27457      -21.24021       -1.08563
C         -7.78618      -20.45529       -0.04907
C         -6.64124      -19.68182       -0.28609
C         -5.97270      -19.63988       -1.49901
C         -6.31983      -18.85951        0.88488
O         -5.27702      -18.27038        1.06773
C         -7.52048      -18.96563        1.77801
C         -8.26568      -20.16613        1.33711
C         -9.11047      -20.92002        2.08668
C         -9.40342      -20.60564        3.44976
N         -9.64069      -20.33637        4.54951
C         -9.72758      -22.10407        1.58982
N        -10.23846      -23.06447        1.17468
C         -7.92220      -17.97901        2.59898
C         -7.22901      -16.74413        2.70466
C         -6.21342      -16.38223        3.55726
C         -5.75724      -15.02486        3.37981
C         -6.44509      -14.39516        2.33859
S         -7.66194      -15.43980        1.69350
C         -6.11448      -13.08519        1.95307
S         -6.93312      -12.30900        0.56435
C         -8.30308      -11.51401        1.44131
C         -5.09091      -12.36194        2.60025
C         -4.43435      -12.97890        3.66427
C         -4.76627      -14.28414        4.05147
S         -3.91982      -15.06798        5.41738
C         -5.00677      -14.51674        6.75656
S         -3.25078      -11.93285        4.34102
C         -3.50466      -10.69535        3.19809
C         -4.54411      -11.04644        2.35837
C         -2.69201       -9.49229        3.16170
C         -1.64405       -9.09956        3.97439
C         -1.03467       -7.86052        3.55337
N          0.04239       -7.30952        4.17985
C          0.47467       -8.04753        5.23570
C          1.65013       -7.50088        5.95292
O          2.20003       -6.45316        5.63718
C          2.16817       -8.26456        7.10263
C          1.59988       -9.40241        7.50190
C          0.42068       -9.96714        6.81914
O         -0.06913      -11.00796        7.23798
C         -0.11855       -9.23615        5.65069
N         -1.19874       -9.81164        5.04818
C         -1.64148       -7.30389        2.44598
S         -2.94572       -8.30539        1.93696
C         -1.28806       -6.10904        1.70609
C         -1.88700       -5.60726        0.57001
C         -1.12847       -4.55837       -0.06757
C          0.00368       -4.22701        0.68125
S          0.00820       -5.09497        2.16099
C          0.96812       -3.33308        0.18526
S          2.47688       -2.99955        1.09211
C          1.98119       -1.58980        2.13019
C          0.86869       -2.83700       -1.13140
C         -0.32513       -3.06037       -1.81952
C         -1.31270       -3.90274       -1.29745
S         -2.78322       -4.28156       -2.24362
C         -2.21402       -5.80193       -3.05578
S         -0.33641       -2.16373       -3.28504
C          1.37043       -1.96391       -3.27713
C          1.83742       -2.20155       -1.99914
C          2.07478       -1.48949       -4.42491
C          1.79363       -1.85388       -5.68732
C          2.26208       -0.98350       -6.81738
O          3.19855       -0.21423       -6.82884
C          1.27183       -1.19289       -7.89870
C          1.19785       -0.52111       -9.10708
C          0.12557       -0.81852       -9.96279
C         -0.88970       -1.73128       -9.53979
C         -1.97694       -1.99704      -10.38329
C         -2.03985       -1.41249      -11.64256
C         -1.03975       -0.55032      -12.06926
C          0.03172       -0.23825      -11.23632
F         -1.09367       -0.01375      -13.29576
F         -3.07043       -1.70382      -12.44768
C         -0.78414       -2.38445       -8.30116
C          0.33492       -2.16427       -7.51428
C          0.82397       -2.79198       -6.26535
C          0.63863       -4.08946       -5.92032
C          1.42311       -4.72703       -4.91361
N          2.06102       -5.27739       -4.11679
C         -0.29467       -4.93633       -6.58503
N         -1.07858       -5.61175       -7.10601
H         -8.95027      -22.67581       -3.28440
H         -5.00823      -19.73020       -4.00623
H         -9.17368      -21.83883       -0.97298
H         -5.10681      -18.99276       -1.61696
H         -8.86916      -18.02145        3.12694
H         -5.78468      -17.06941        4.27782
H         -8.88906      -10.92767        0.72802
H         -7.92946      -10.84081        2.21753
H         -8.95702      -12.26375        1.89374
H         -4.64089      -14.91767        7.70512
H         -6.02498      -14.88121        6.59465
H         -5.02169      -13.42543        6.82243
H         -4.89805      -10.40904        1.55662
H          3.03408       -7.84703        7.60472
H          1.97638       -9.96590        8.34833
H         -2.77327       -6.04405        0.12292
H          2.88703       -1.13731        2.54927
H          1.35272       -1.91276        2.96496
H          1.45892       -0.82215        1.55282
H         -1.47608       -5.56073       -3.82325
H         -3.06347       -6.29867       -3.53215
H         -1.76795       -6.49571       -2.33838
H          2.87204       -2.04562       -1.71279
H          2.83515       -0.72945       -4.24652
H          1.96176        0.20485       -9.37286
H         -2.77258       -2.67610      -10.08641
H          0.79391        0.44312      -11.60474
H         -1.57191       -3.06445       -7.98806
