140

C         -8.36946      -17.94838      -13.52422
C         -7.28823      -18.75498      -13.87349
F         -7.02005      -18.97372      -15.16660
C         -6.48875      -19.32373      -12.89032
F         -5.43588      -20.07973      -13.23001
C         -6.76973      -19.11292      -11.54444
C         -7.85882      -18.31253      -11.16781
C         -8.66592      -17.69900      -12.17296
C         -9.73049      -16.84384      -11.80158
C         -9.99767      -16.61197      -10.45389
C         -9.19856      -17.25186       -9.49380
C         -8.14758      -18.09614       -9.81584
C         -9.58162      -16.83216       -8.13370
O         -9.28165      -17.39732       -7.10466
C        -10.47258      -15.64078       -8.32536
C        -10.97194      -15.73643       -9.72559
C        -12.15381      -15.29160      -10.21265
C        -13.08170      -14.58236       -9.39600
N        -13.82229      -14.00293       -8.70938
C        -12.59029      -15.55077      -11.54821
N        -12.93726      -15.76634      -12.62603
C        -10.56802      -14.61381       -7.45762
C         -9.87811      -14.50127       -6.20598
C        -10.29290      -14.81285       -4.92446
C         -9.40635      -14.36267       -3.85425
C         -9.54388      -14.34232       -2.42263
C        -10.88762      -14.61166       -1.82601
C        -12.16079      -14.34352       -2.31878
C        -13.22221      -14.79564       -1.46518
C        -12.74613      -15.34898       -0.30140
S        -11.05861      -15.35955       -0.28839
C        -13.47590      -15.90644        0.87067
C         -8.41516      -14.03455       -1.60682
C         -7.18508      -13.72271       -2.18813
C         -7.17364      -13.41614       -3.57026
C         -8.23581      -13.81908       -4.40616
S         -8.37462      -13.69613       -6.13249
C         -6.13929      -12.47258       -4.06321
C         -5.39767      -12.42247       -5.23195
C         -4.61296      -11.22864       -5.35169
C         -4.73161      -10.40944       -4.25140
S         -5.83833      -11.04309       -3.12642
C         -4.05639       -9.11176       -3.96137
C         -6.12510      -13.73916       -1.19898
C         -6.55424      -13.82197        0.11517
S         -8.25322      -13.80985        0.12404
C         -5.73113      -13.68786        1.31814
C         -5.77876      -14.21320        2.62088
C         -4.69139      -13.67315        3.46730
C         -4.26915      -13.94660        4.80495
C         -3.17121      -13.27362        5.38550
C         -2.46136      -12.33410        4.65496
C         -2.81902      -12.06894        3.33847
C         -3.92012      -12.74402        2.76914
S         -4.45396      -12.53713        1.17395
C         -2.79258      -13.55528        6.74240
N         -2.46283      -13.76600        7.83605
C         -6.81182      -15.23835        3.11674
C         -7.39042      -16.21009        2.33642
C         -8.46093      -16.95632        2.96694
C         -9.40798      -17.88219        2.44708
C         -9.29186      -18.37210        1.04178
C         -8.80877      -17.75695       -0.10177
C         -8.75189      -18.59376       -1.25046
C         -9.15689      -19.87424       -0.96963
S         -9.63655      -20.03055        0.65499
C         -9.14949      -21.04803       -1.88538
C        -10.37929      -18.43001        3.30226
C        -10.17122      -18.44766        4.68197
C         -9.19911      -17.56642        5.23342
C         -8.44878      -16.72793        4.35616
S         -7.41894      -15.36254        4.70118
C         -9.01599      -17.53890        6.72065
C         -9.93527      -17.73528        7.74801
C         -9.37775      -17.63107        9.06503
C         -8.03460      -17.33470        9.02843
S         -7.45350      -17.31689        7.42436
C         -7.09610      -17.06079       10.15877
C        -10.90462      -19.57702        5.20422
C        -11.95393      -20.00708        4.40501
S        -11.93022      -19.12383        2.94611
C        -12.91770      -21.04974        4.57903
C        -13.27176      -21.51103        5.78180
C        -13.82075      -22.90668        5.94464
O        -14.46489      -23.55607        5.15099
C        -13.30148      -23.35475        7.26402
C        -13.32774      -24.62693        7.80126
C        -12.57618      -24.86505        8.96422
C        -11.76515      -23.82588        9.52270
C        -10.94434      -24.10765       10.62466
C        -10.96625      -25.37199       11.20316
C        -11.79531      -26.36354       10.69804
C        -12.58950      -26.12361        9.58032
F        -11.83480      -27.56914       11.28110
F        -10.18391      -25.62107       12.26206
C        -11.80266      -22.53357        8.97625
C        -12.62640      -22.29690        7.88867
C        -12.93468      -21.07355        7.13023
C        -13.22280      -19.86523        7.66918
C        -13.76041      -18.79414        6.89230
N        -14.19616      -17.91309        6.27527
C        -13.12778      -19.64537        9.07129
N        -13.05139      -19.50422       10.22106
H         -8.96766      -17.51992      -14.32470
H         -6.12096      -19.57202      -10.80224
H        -10.30093      -16.35948      -12.58894
H         -7.55300      -18.54350       -9.02268
H        -11.12022      -13.72028       -7.73816
H        -11.23643      -15.31354       -4.74431
H        -12.34816      -13.85017       -3.26394
H        -14.27664      -14.70448       -1.69388
H        -13.57404      -15.15136        1.65806
H        -12.93966      -16.76169        1.29331
H        -14.47414      -16.25106        0.58947
H         -5.43107      -13.18377       -6.00104
H         -3.99235      -10.98832       -6.20713
H         -3.65491       -8.66224       -4.87470
H         -3.22617       -9.26444       -3.26306
H         -4.75015       -8.39084       -3.51416
H         -5.08080      -13.61767       -1.46852
H         -4.77851      -14.69938        5.39816
H         -1.60365      -11.81352        5.08664
H         -2.24922      -11.35238        2.75018
H         -7.08823      -16.35114        1.31273
H         -8.49156      -16.72993       -0.14429
H         -8.39259      -18.27451       -2.22139
H         -9.51194      -20.76553       -2.87938
H         -9.77120      -21.87161       -1.52128
H         -8.12319      -21.41565       -1.99205
H        -10.98435      -17.92334        7.57978
H         -9.94140      -17.73615        9.98756
H         -6.90560      -15.98489       10.24740
H         -6.13621      -17.56567       10.00669
H         -7.50532      -17.40798       11.11345
H        -10.64528      -20.04971        6.14158
H        -13.26938      -21.56938        3.68646
H        -13.89578      -25.41302        7.31180
H        -10.28668      -23.35445       11.05170
H        -13.21725      -26.92797        9.20691
H        -11.18750      -21.74099        9.39672
