101

C        -12.56029       -3.48259       -1.61217
C        -13.62978       -4.21272       -1.09526
F        -14.83650       -4.10454       -1.66790
C        -13.45284       -5.04621       -0.00079
F        -14.47811       -5.76564        0.47565
C        -12.21277       -5.13884        0.61831
C        -11.13011       -4.38900        0.13737
C        -11.28837       -3.56590       -1.01895
C        -10.17567       -2.86581       -1.54955
C         -8.93662       -2.95601       -0.92202
C         -8.84183       -3.72789        0.24514
C         -9.89453       -4.44863        0.78315
C         -7.46506       -3.73056        0.75534
O         -7.13326       -4.00422        1.88811
C         -6.63609       -3.21905       -0.38063
C         -7.56662       -2.44458       -1.24139
C         -7.25120       -1.39521       -2.03847
C         -5.91510       -0.91161       -2.15677
N         -4.82723       -0.52367       -2.26277
C         -8.23183       -0.66255       -2.76229
N         -9.03981       -0.07304       -3.35898
C         -5.39597       -3.66138       -0.65742
C         -4.72090       -4.64906        0.12428
C         -3.88428       -4.50231        1.20211
O         -3.59966       -3.27662        1.71266
C         -2.47845       -3.35327        2.60023
C         -2.58023       -4.55189        3.55531
C         -3.78611       -4.45725        4.49532
O         -2.58917       -5.79839        2.82428
C         -3.39264       -5.74070        1.72767
C         -3.79121       -6.86300        1.00397
S         -4.82051       -6.31221       -0.29635
C         -3.52791       -8.34006        1.17664
C         -3.41745       -9.28234        0.11243
C         -3.23522      -10.70866        0.32375
N         -3.21569      -11.54311       -0.73899
C         -3.29644      -11.04088       -1.98041
C         -3.42388       -9.69915       -2.18721
N         -3.48345       -8.82826       -1.16044
C         -3.05960      -11.28716        1.59993
C         -3.09172      -10.37585        2.69256
C         -3.38064       -8.89597        2.48468
N         -3.50150       -8.25291        3.66001
S         -3.14259       -9.30882        4.86878
N         -2.85255      -10.66507        3.98553
C         -2.85895      -12.74586        1.85385
C         -3.30821      -13.56941        2.87091
O         -4.05016      -13.12501        3.91642
C         -3.81968      -13.96973        5.05260
C         -4.11185      -15.43124        4.69267
C         -5.57642      -15.63538        4.30788
O         -3.25742      -15.91293        3.63154
C         -2.93183      -14.93949        2.73385
C         -2.16824      -15.18658        1.60847
S         -1.83742      -13.68496        0.81721
C         -1.55079      -16.36462        1.07955
C         -1.98069      -17.62541        1.22911
C         -0.98216      -18.72662        1.00826
O          0.00863      -18.71644        0.31011
C         -1.40612      -19.81170        1.91754
C         -0.67857      -20.93978        2.25550
C         -1.16411      -21.74918        3.29150
C         -2.36099      -21.37942        3.98141
C         -2.79494      -22.15833        5.06381
C         -2.08268      -23.29284        5.43966
C         -0.94057      -23.67014        4.74796
C         -0.47420      -22.90650        3.68228
F         -0.26991      -24.77335        5.10644
F         -2.51263      -24.02027        6.47963
C         -3.09024      -20.24284        3.58167
C         -2.62785      -19.48039        2.52121
C         -3.13754      -18.25566        1.85865
C         -4.44093      -17.96772        1.63082
C         -4.84204      -16.92869        0.74358
N         -5.20087      -16.10504        0.00522
C         -5.49815      -18.75655        2.16931
N         -6.33990      -19.40007        2.63558
H        -12.74168       -2.84760       -2.47589
H        -12.10652       -5.80097        1.47384
H        -10.31292       -2.29112       -2.46160
H         -9.73350       -5.05842        1.66835
H         -4.88059       -3.35888       -1.56348
H         -2.42987       -2.41243        3.15907
H         -1.56961       -3.42519        1.98905
H         -1.67621       -4.56855        4.17517
H         -4.73761       -4.46528        3.95356
H         -3.74490       -3.54018        5.09305
H         -3.80673       -5.31447        5.17584
H         -3.24073      -11.75479       -2.79359
H         -3.48499       -9.27522       -3.18178
H         -4.46763      -13.63074        5.86728
H         -2.77861      -13.84908        5.38414
H         -3.89719      -16.05552        5.56830
H         -5.81978      -15.14522        3.35948
H         -6.24524      -15.24679        5.08192
H         -5.78925      -16.69940        4.17741
H         -0.58939      -16.21522        0.58400
H          0.25851      -21.15481        1.74831
H         -3.68613      -21.89648        5.62846
H          0.42965      -23.22679        3.17058
H         -3.98943      -19.96288        4.12468
