95

C         -6.60383       -5.27522       -9.54131
C         -7.55966       -6.08889      -10.14695
F         -7.62099       -6.14406      -11.48433
C         -8.43581       -6.84223       -9.37926
F         -9.33227       -7.64572       -9.96749
C         -8.39368       -6.77294       -7.99243
C         -7.45618       -5.94433       -7.36075
C         -6.52121       -5.19831       -8.14130
C         -5.52326       -4.42010       -7.50530
C         -5.46689       -4.36995       -6.11703
C         -6.43082       -5.08441       -5.39129
C         -7.41886       -5.86277       -5.96898
C         -6.16446       -4.99840       -3.95300
O         -6.93919       -5.29156       -3.06818
C         -4.77449       -4.44653       -3.84766
C         -4.50509       -3.77012       -5.13959
C         -3.65951       -2.73918       -5.36118
C         -2.85691       -2.18510       -4.32045
N         -2.19898       -1.75365       -3.46778
C         -3.54703       -2.10288       -6.63274
N         -3.46242       -1.58638       -7.66961
C         -3.92237       -4.81453       -2.87190
C         -4.28077       -5.79121       -1.88985
C         -4.77132       -5.62137       -0.60279
F         -4.96919       -4.45706       -0.04653
C         -5.11317       -6.85476        0.00456
C         -4.79555       -7.89329       -0.82422
S         -4.08592       -7.48716       -2.29971
C         -5.13699       -9.15298       -0.37993
C         -5.80733       -9.21444        0.80297
S         -5.82482       -7.59070        1.39774
C         -6.26066      -10.53588        1.04321
F         -7.00599      -10.83564        2.07222
C         -5.92338      -11.42143        0.01681
S         -4.87084      -10.62064       -1.15445
C         -6.28792      -12.86270       -0.17606
C         -6.50522      -13.77801        0.88333
C         -6.87367      -15.16693        0.66028
N         -7.06337      -15.97821        1.72252
C         -6.97291      -15.47150        2.96653
C         -6.62580      -14.16435        3.17716
N         -6.36219      -13.32826        2.14899
F         -6.54445      -13.68037        4.42386
F         -7.24384      -16.28328        3.99778
C         -7.05417      -15.72144       -0.63161
C         -6.87046      -14.82435       -1.72101
C         -6.48801      -13.38261       -1.49356
N         -6.39681      -12.70717       -2.65376
S         -6.66151      -13.75638       -3.89098
N         -7.02981      -15.10531       -3.02624
C         -7.46091      -17.12952       -0.92269
C         -7.14055      -17.95567       -2.00210
F         -6.33192      -17.63740       -2.97626
C         -7.81517      -19.19847       -1.95951
C         -8.52939      -19.30208       -0.80609
S         -8.56095      -17.94648        0.18030
C         -9.20324      -20.48117       -0.60397
C         -9.18780      -21.35529       -1.64747
S         -8.11082      -20.67211       -2.81086
C        -10.08546      -22.41257       -1.39532
F        -10.35766      -23.33757       -2.27615
C        -10.68459      -22.31980       -0.14081
S        -10.13429      -20.90890        0.73468
C        -11.69122      -23.12928        0.47388
C        -11.83712      -24.44337        0.25248
C        -13.18604      -25.05730        0.49280
O        -14.05067      -24.68972        1.25833
C        -13.28638      -26.14391       -0.50607
C        -14.42669      -26.85225       -0.84514
C        -14.36379      -27.71175       -1.95103
C        -13.15409      -27.81400       -2.70582
C        -13.12155      -28.63324       -3.84369
C        -14.25040      -29.35447       -4.21785
C        -15.41750      -29.27354       -3.47196
C        -15.48387      -28.45713       -2.34671
F        -16.49768      -29.97902       -3.83350
F        -14.19909      -30.13082       -5.30874
C        -12.01025      -27.09414       -2.31412
C        -12.06836      -26.28486       -1.19017
C        -11.06856      -25.41400       -0.52641
C         -9.73210      -25.62708       -0.46152
C         -8.87932      -24.88043        0.40592
N         -8.17585      -24.27664        1.10346
C         -9.09088      -26.65497       -1.21074
N         -8.58048      -27.48206       -1.83688
H         -5.93046       -4.70913      -10.17991
H         -9.09154       -7.37821       -7.41948
H         -4.79075       -3.91007       -8.12509
H         -8.10653       -6.41986       -5.33763
H         -2.88000       -4.51272       -2.87874
H        -12.45359      -22.60565        1.05336
H        -15.34452      -26.70729       -0.28123
H        -12.22501      -28.72285       -4.45227
H        -16.41764      -28.41240       -1.79257
H        -11.10716      -27.16163       -2.91517
