157

C        -16.87335      -12.45498        7.96513
C        -17.73440      -13.50488        7.64890
F        -18.98428      -13.49499        8.13165
C        -17.31116      -14.54729        6.83735
F        -18.14973      -15.54375        6.52191
C        -16.01479      -14.56743        6.33925
C        -15.13027      -13.52464        6.64847
C        -15.56111      -12.43533        7.46420
C        -14.68297      -11.35648        7.73679
C        -13.39527      -11.36119        7.21186
C        -13.00853      -12.46121        6.43761
C        -13.83139      -13.53739        6.14453
C        -11.65618      -12.27641        5.90820
O        -10.99754      -13.15162        5.39038
C        -11.30652      -10.84253        6.17749
C        -12.25539      -10.38944        7.23157
C        -12.06018       -9.40516        8.14145
C        -10.86577       -8.62624        8.17571
N         -9.89617       -7.99202        8.19977
C        -12.99199       -9.11659        9.17326
N        -13.76781       -8.87705       10.01210
C        -10.43107      -10.12740        5.44394
C         -9.60688      -10.57436        4.29724
C        -10.09740      -11.38816        3.26607
C         -9.28218      -11.78643        2.19499
C         -7.95517      -11.36067        2.12152
C         -7.46010      -10.54546        3.15148
C         -8.28968      -10.11314        4.19529
C         -7.05356      -11.80976        1.00954
C         -6.26131      -13.04747        1.29993
C         -5.00838      -12.93500        1.91846
C         -4.33658      -14.07190        2.37294
C         -4.90809      -15.33230        2.20910
C         -6.14762      -15.45804        1.58285
C         -6.82457      -14.32042        1.13160
C         -6.93156      -11.13115       -0.18172
C         -6.04343      -11.70368       -1.24902
C         -6.54501      -12.62127       -2.18684
C         -5.75213      -13.05079       -3.25588
C         -4.44639      -12.58218       -3.38837
C         -3.93176      -11.68570       -2.45210
C         -4.72769      -11.24386       -1.39059
C         -7.69645       -9.85735       -0.49314
C         -7.89659       -8.84422        0.44497
C         -8.75945       -7.76564        0.21212
C         -9.39850       -7.58912       -1.01681
C         -9.03429       -8.49035       -2.03098
C         -8.20947       -9.60501       -1.77311
C        -10.41887       -6.54305       -1.21841
C        -10.63636       -5.84222       -2.41948
F         -9.79681       -6.05171       -3.44954
C        -11.69121       -4.91310       -2.63929
F        -11.75606       -4.39057       -3.87724
C        -12.66926       -4.53249       -1.68395
C        -12.45371       -5.18495       -0.43900
C        -11.35708       -6.17124       -0.21472
N        -11.46339       -6.60876        1.05554
N        -12.49336       -5.91384        1.53483
N        -13.13283       -5.07096        0.72093
C        -12.90996       -6.06838        2.90794
C        -13.78568       -3.59216       -1.95060
C        -15.04577       -3.70845       -1.33198
C        -16.11975       -2.85374       -1.65111
C        -15.97195       -1.84866       -2.61040
C        -14.72575       -1.70461       -3.22293
C        -13.65676       -2.55287       -2.89126
C        -17.13946       -1.03190       -3.07246
C        -17.84376       -1.48408       -4.30906
C        -17.36322       -1.07446       -5.56228
C        -17.93730       -1.55969       -6.73835
C        -19.00092       -2.45645       -6.67317
C        -19.48760       -2.87037       -5.43288
C        -18.90904       -2.39053       -4.25306
C        -17.50621        0.12555       -2.44271
C        -18.68444        0.92649       -2.89178
C        -19.95440        0.67783       -2.35221
C        -21.03378        1.51045       -2.66425
C        -20.85500        2.59594       -3.52013
C        -19.60090        2.84189       -4.07628
C        -18.52020        2.01101       -3.76479
C        -16.69770        0.65080       -1.30337
C        -15.61491        1.50331       -1.54835
C        -14.80647        1.96036       -0.49693
C        -15.08275        1.61079        0.83060
C        -16.20223        0.79388        1.07020
C        -17.00336        0.32099        0.01813
C        -14.15871        1.89558        1.95272
C        -13.25975        2.87932        2.13001
C        -12.20402        2.71496        3.18921
O        -12.21139        1.96732        4.14451
C        -11.10299        3.61961        2.79606
C         -9.90641        3.80584        3.47237
C         -8.98861        4.73022        2.95328
C         -9.27383        5.39242        1.72062
C         -8.35027        6.31549        1.20710
C         -7.18240        6.60120        1.90652
C         -6.91120        5.96906        3.11108
C         -7.79852        5.03228        3.63431
F         -5.79238        6.26224        3.78773
F         -6.32721        7.50592        1.41082
C        -10.48914        5.15364        1.04948
C        -11.43413        4.31241        1.62040
C        -12.87579        4.05161        1.34098
C        -13.71557        4.99549        0.85138
C        -15.07451        5.05636        1.28186
N        -16.14169        5.19082        1.71668
C        -13.27359        6.08022        0.04247
N        -12.89403        6.93006       -0.65116
H        -17.24723      -11.65662        8.60117
H        -15.71390      -15.39711        5.70438
H        -15.05411      -10.52686        8.33072
H        -13.46349      -14.33937        5.51075
H        -10.27975       -9.07106        5.65451
H        -11.12058      -11.75288        3.28303
H         -9.69070      -12.45006        1.43748
H         -6.42822      -10.20226        3.11966
H         -7.88415       -9.41755        4.92717
H         -4.56920      -11.95557        2.08582
H         -3.37955      -13.97026        2.87729
H         -4.39423      -16.21444        2.58266
H         -6.59919      -16.44048        1.47068
H         -7.80881      -14.43196        0.68485
H         -7.56905      -12.97791       -2.10923
H         -6.15795      -13.73891       -3.99336
H         -3.83226      -12.90931       -4.22397
H         -2.91467      -11.31778       -2.55826
H         -4.32175      -10.52489       -0.68434
H         -7.40519       -8.86879        1.40598
H         -8.93754       -7.08154        1.03903
H         -9.41762       -8.37179       -3.04288
H         -7.99831      -10.27662       -2.60194
H        -12.25019       -6.77991        3.41255
H        -13.93637       -6.44247        2.91667
H        -12.84901       -5.09421        3.39906
H        -15.23212       -4.49501       -0.60283
H        -17.07989       -3.00899       -1.16510
H        -14.57778       -0.95100       -3.99163
H        -12.71627       -2.39203       -3.41415
H        -16.52236       -0.38949       -5.62787
H        -17.54626       -1.24632       -7.70262
H        -19.44534       -2.83801       -7.58897
H        -20.31140       -3.57791       -5.38622
H        -19.28311       -2.74148       -3.29551
H        -20.10567       -0.14988       -1.66480
H        -22.01037        1.32328       -2.22506
H        -21.69017        3.25426       -3.74705
H        -19.46055        3.69180       -4.73923
H        -17.54524        2.23004       -4.19044
H        -15.37343        1.79230       -2.56853
H        -13.93396        2.54810       -0.75851
H        -16.45279        0.48378        2.08338
H        -17.85162       -0.32298        0.23745
H        -14.17427        1.10597        2.70683
H         -9.71732        3.26842        4.39845
H         -8.53536        6.84279        0.27426
H         -7.55495        4.56267        4.58371
H        -10.67973        5.67001        0.11300
