143

C        -16.88128      -23.94324       -3.72323
C        -16.60531      -24.97065       -2.82169
F        -17.13025      -26.18488       -3.03264
C        -15.79434      -24.74730       -1.71794
F        -15.51562      -25.74551       -0.86853
C        -15.26860      -23.48569       -1.47695
C        -15.55660      -22.43233       -2.35319
C        -16.35145      -22.65930       -3.51959
C        -16.58220      -21.60764       -4.44394
C        -16.06312      -20.34578       -4.19224
C        -15.35818      -20.15822       -2.99713
C        -15.07010      -21.15648       -2.08544
C        -14.91482      -18.76926       -2.88803
O        -14.69156      -18.18300       -1.85211
C        -14.96563      -18.24254       -4.28634
C        -16.00487      -19.05544       -4.95660
C        -16.83236      -18.64946       -5.94758
C        -16.74813      -17.34274       -6.50850
N        -16.66130      -16.27793       -6.96725
C        -17.89006      -19.47283       -6.44022
N        -18.74073      -20.14697       -6.82601
C        -14.04406      -17.41771       -4.82334
C        -12.86236      -16.96258       -4.14760
C        -12.16481      -15.78345       -4.30594
C        -11.04329      -15.59775       -3.39334
C        -10.17667      -14.48953       -3.15286
C        -10.33519      -13.21442       -3.92586
C         -9.37297      -12.34898       -4.43930
C         -9.91132      -11.23785       -5.16022
C        -11.28274      -11.29346       -5.23676
S        -11.89668      -12.54331       -4.25084
C        -12.20446      -10.41864       -6.01937
C         -9.13532      -14.60647       -2.19338
C         -8.91307      -15.79709       -1.48462
C         -9.81211      -16.88170       -1.67507
C        -10.83627      -16.76949       -2.64748
S        -11.95235      -17.97924       -3.13824
C         -9.68314      -18.13828       -0.85189
C         -9.93029      -19.47134       -1.17204
C         -9.69280      -20.39212       -0.10601
C         -9.21052      -19.76247        1.01524
S         -9.26616      -18.06793        0.83253
C         -8.71329      -20.38288        2.27805
C         -7.70954      -15.68546       -0.68885
C         -7.11262      -14.44642       -0.68017
S         -8.01705      -13.39187       -1.66212
C         -5.91158      -14.04763        0.03823
C         -5.10483      -14.79835        0.87845
C         -3.98491      -14.04706        1.40948
N         -3.07153      -14.57407        2.27611
C         -3.32123      -15.88550        2.56164
C         -2.35572      -16.52583        3.48634
O         -1.40215      -15.92961        3.97360
C         -2.55980      -17.94648        3.82542
C         -3.57668      -18.64865        3.32336
C         -4.55926      -18.04506        2.40293
O         -5.47111      -18.74052        1.97120
C         -4.38911      -16.61519        2.04138
N         -5.32907      -16.11044        1.18458
C         -3.94522      -12.74493        0.95224
S         -5.28249      -12.44602       -0.08159
C         -2.99246      -11.69401        1.23331
C         -3.21736      -10.33616        1.25697
C         -2.09514       -9.53215        1.69710
C         -1.97711       -8.13090        1.93976
C         -3.13135       -7.21191        1.62082
C         -4.50900       -7.40292        1.68681
C         -5.28618       -6.26452        1.29455
C         -4.49772       -5.18858        0.96553
S         -2.85205       -5.63177        0.94481
C         -4.92042       -3.79517        0.62829
C         -0.76480       -7.62453        2.48073
C          0.38256       -8.42935        2.59911
C          0.27965       -9.82721        2.32867
C         -0.96975      -10.35394        1.90508
S         -1.35422      -11.99967        1.50938
C          1.45341      -10.75673        2.56338
C          1.49017      -12.07270        3.02671
C          2.80397      -12.63554        3.12553
C          3.77718      -11.72817        2.78770
S          3.08220      -10.29268        2.19323
C          5.26080      -11.88900        2.82712
C          1.50707       -7.59414        2.94292
C          1.20954       -6.31207        3.34463
S         -0.44923       -6.04141        3.14910
C          2.07335       -5.28563        3.82663
C          3.17582       -5.52939        4.55208
C          4.23275       -4.46534        4.64555
O          4.10545       -3.26902        4.49927
C          5.49884       -5.19900        4.85763
C          6.77633       -4.66619        4.87177
C          7.85901       -5.55249        4.97005
C          7.62412       -6.96339        4.98045
C          8.71472       -7.84249        5.02622
C         10.00954       -7.34241        5.10448
C         10.23673       -5.97337        5.13018
C          9.17506       -5.07720        5.05285
F         11.48632       -5.50091        5.23175
F         11.03837       -8.19877        5.16622
C          6.30913       -7.46318        4.96866
C          5.24661       -6.57386        4.97308
C          3.78022       -6.75823        5.08596
C          3.16816       -7.71414        5.82754
C          1.79732       -7.63873        6.19661
N          0.68515       -7.57873        6.54244
C          3.88585       -8.80323        6.39494
N          4.49864       -9.68784        6.84612
H        -17.51779      -24.16280       -4.57608
H        -14.64022      -23.33976       -0.60169
H        -17.14746      -21.82276       -5.34828
H        -14.46409      -20.93461       -1.20979
H        -14.10640      -17.12721       -5.86752
H        -12.49839      -15.04403       -5.02033
H         -8.30604      -12.49224       -4.32637
H         -9.31370      -10.46792       -5.63539
H        -11.78141       -9.41659       -6.14656
H        -13.17950      -10.31143       -5.53416
H        -12.36585      -10.84171       -7.01808
H        -10.26877      -19.81452       -2.13883
H         -9.82944      -21.46460       -0.18137
H         -9.35832      -21.21553        2.57902
H         -8.67990      -19.66951        3.10709
H         -7.70170      -20.77943        2.13222
H         -7.29901      -16.51287       -0.12803
H         -1.83730      -18.38884        4.50363
H         -3.72524      -19.69519        3.56899
H         -4.19043       -9.93481        1.02038
H         -4.98547       -8.31300        2.02138
H         -6.37025       -6.23195        1.29542
H         -5.90850       -3.78852        0.15536
H         -4.22116       -3.30765       -0.05838
H         -4.98354       -3.18589        1.53791
H          0.61647      -12.65410        3.29456
H          3.01133      -13.64969        3.45070
H          5.55021      -12.79494        3.37149
H          5.73924      -11.03994        3.32913
H          5.66400      -11.96263        1.81223
H          2.53034       -7.92504        2.94140
H          1.86820       -4.26726        3.49634
H          6.91778       -3.59039        4.80556
H          8.57468       -8.91987        5.01966
H          9.39118       -4.01272        5.07197
H          6.14723       -8.53858        4.96604
