101

C         -5.19125        2.28650        2.51785
C         -5.95664        2.64841        3.62397
F         -6.50218        3.87126        3.66887
C         -6.16602        1.75415        4.66436
F         -6.92389        2.10275        5.71270
C         -5.59859        0.48677        4.62840
C         -4.81783        0.10299        3.53036
C         -4.62035        1.00804        2.44134
C         -3.89057        0.60570        1.29861
C         -3.36191       -0.67557        1.24149
C         -3.55045       -1.51925        2.34559
C         -4.25586       -1.17132        3.48339
C         -3.02065       -2.85195        2.06118
O         -2.76939       -3.70444        2.88488
C         -2.82659       -2.88205        0.57637
C         -2.68594       -1.46561        0.16756
C         -1.98067       -0.98136       -0.88113
C         -1.29106       -1.83731       -1.78919
N         -0.74894       -2.54400       -2.53234
C         -1.82799        0.41406       -1.11581
N         -1.71468        1.55421       -1.29796
C         -3.04185       -3.95912       -0.19920
C         -3.54211       -5.21029        0.28098
C         -4.40082       -5.49624        1.34864
C         -4.67846       -6.86689        1.45252
C         -4.10648       -7.56813        0.41995
S         -3.18016       -6.66354       -0.61818
C         -4.53093       -8.90709        0.50360
C         -5.36121       -9.05112        1.59302
C         -5.46160       -7.76832        2.29310
C         -6.09001       -7.48695        3.44964
C         -6.80167       -8.48254        4.17205
N         -7.39428       -9.29163        4.75560
C         -6.06738       -6.18213        4.02385
N         -6.07441       -5.11352        4.48413
C         -5.88074      -10.36108        1.67146
C         -5.41780      -11.15755        0.61834
S         -4.31656      -10.27351       -0.40426
C         -5.72608      -12.55043        0.28546
C         -5.74914      -13.06514       -1.03116
C         -6.04829      -14.41506       -1.34110
C         -6.36738      -15.38844       -0.36779
C         -6.36441      -14.89994        0.96282
C         -6.04250      -13.50349        1.28442
N         -6.10458      -13.36820        2.61744
O         -6.47119      -14.59831        3.11794
N         -6.63831      -15.52957        2.11552
C         -6.67585      -16.78751       -0.67518
C         -6.45359      -17.94447        0.07949
C         -6.92014      -19.09496       -0.59303
C         -7.46568      -18.77485       -1.81531
S         -7.46230      -17.16197       -2.18587
C         -7.99348      -19.93880       -2.40508
C         -7.81322      -20.99098       -1.53965
C         -7.04498      -20.53630       -0.37885
C         -6.52129      -21.28604        0.61210
C         -6.68201      -22.69903        0.62313
N         -6.83160      -23.85025        0.58679
C         -5.73493      -20.71218        1.64878
N         -5.08403      -20.25037        2.48961
C         -8.51088      -22.13336       -1.97965
C         -9.11120      -21.92552       -3.22850
S         -8.81614      -20.30246       -3.79824
C         -9.96005      -22.76595       -4.01097
C         -9.91506      -24.10465       -4.00329
C        -11.12923      -24.86505       -4.45758
O        -12.00822      -24.49458       -5.20496
C        -11.08684      -26.13500       -3.69928
C        -12.07605      -27.10231       -3.63704
C        -11.89669      -28.17016       -2.74471
C        -10.74554      -28.20264       -1.89753
C        -10.59999      -29.24285       -0.96999
C        -11.55022      -30.25507       -0.90311
C        -12.65170      -30.24403       -1.74707
C        -12.83695      -29.20770       -2.65837
F        -13.55116      -31.23546       -1.69110
F        -11.38680      -31.24776       -0.01829
C         -9.75922      -27.20667       -1.99929
C         -9.90791      -26.20048       -2.93908
C         -9.03716      -25.07149       -3.34383
C         -7.68191      -25.08811       -3.37029
C         -6.92434      -24.10832       -4.08056
N         -6.29605      -23.32772       -4.66575
C         -6.92070      -26.13918       -2.78810
N         -6.31306      -27.00316       -2.30815
H         -5.05919        3.01343        1.72074
H         -5.78604       -0.19336        5.45581
H         -3.80115        1.29594        0.46443
H         -4.40122       -1.90063        4.27744
H         -2.95260       -3.88262       -1.28022
H         -4.80206       -4.73848        2.00727
H         -6.57604      -10.72384        2.41982
H         -5.53156      -12.40561       -1.87304
H         -6.01866      -14.69543       -2.39540
H         -5.99294      -17.92433        1.06057
H         -8.62609      -23.04858       -1.41338
H        -10.76716      -22.27284       -4.55591
H        -12.96482      -27.01440       -4.25687
H         -9.74639      -29.28729       -0.29778
H        -13.71522      -29.23054       -3.29799
H         -8.89763      -27.23756       -1.33732
