87

C          0.57354        1.31640       -2.06751
C          1.63312        1.20912       -2.96684
F          2.53090        2.20083       -3.04205
C          1.76831        0.08710       -3.77181
F          2.79942       -0.01726       -4.62088
C          0.84043       -0.94346       -3.70229
C         -0.23507       -0.85517       -2.80886
C         -0.37484        0.28633       -1.96321
C         -1.43948        0.35686       -1.03128
C         -2.35481       -0.68739       -0.94394
C         -2.18041       -1.78347       -1.79759
C         -1.15974       -1.89328       -2.72726
C         -3.15957       -2.83325       -1.51201
O         -3.33877       -3.80660       -2.21218
C         -3.84006       -2.41516       -0.24234
C         -3.52769       -0.97195       -0.06008
C         -4.25036       -0.06266        0.63943
C         -5.43469       -0.41369        1.35318
N         -6.39341       -0.69919        1.94679
C         -3.92135        1.32258        0.66436
N         -3.64290        2.45017        0.68325
C         -4.37635       -3.28473        0.63151
C         -4.48238       -4.71642        0.48117
C         -5.08833       -5.43592       -0.48455
C         -5.05572       -6.88887       -0.32219
C         -4.46205       -7.37418        0.79534
Si        -3.81601       -5.88886        1.80455
C         -4.25887       -8.79111        1.19429
C         -4.24874       -9.25912        2.53429
C         -4.03351      -10.64861        2.88906
N         -4.01340      -11.03254        4.18432
C         -4.20625      -10.08589        5.12772
C         -4.42505       -8.77156        4.79789
N         -4.45278       -8.35655        3.51434
F         -4.59840       -7.84796        5.75308
F         -4.17072      -10.45687        6.41447
C         -3.83208      -11.64207        1.91793
C         -3.84777      -11.23421        0.55731
C         -4.05700       -9.78742        0.18679
N         -4.00825       -9.60305       -1.14535
S         -3.76982      -11.07393       -1.85480
N         -3.68279      -12.03271       -0.51281
C         -3.62499      -13.06121        2.21411
C         -4.57335      -14.01227        2.35207
C         -4.07646      -15.35897        2.61369
C         -2.74164      -15.48570        2.77782
Si        -1.90936      -13.79540        2.46220
C         -1.97180      -16.68576        3.01395
C         -2.34031      -17.75142        3.74393
C         -1.58563      -19.04437        3.59920
O         -0.46486      -19.21208        3.16993
C         -2.52903      -20.09765        4.02941
C         -2.30575      -21.46588        4.02506
C         -3.34249      -22.30600        4.45839
C         -4.60834      -21.74537        4.80812
C         -5.64578      -22.58855        5.23002
C         -5.42935      -23.95683        5.34241
C         -4.19448      -24.50260        5.02234
C         -3.15611      -23.69212        4.57042
F         -3.98725      -25.81961        5.15526
F         -6.42311      -24.74217        5.77934
C         -4.80271      -20.35401        4.77051
C         -3.73910      -19.52422        4.44931
C         -3.54731      -18.05074        4.52490
C         -4.17226      -17.23827        5.41070
C         -3.66016      -15.95229        5.75994
N         -3.24596      -14.93015        6.10995
C         -5.32107      -17.63940        6.15100
N         -6.27207      -17.97349        6.72298
H          0.50805        2.20988       -1.45198
H          0.97587       -1.81199       -4.34196
H         -1.49568        1.22219       -0.37669
H         -1.08171       -2.78806       -3.33993
H         -4.71513       -2.93714        1.60635
H         -5.57060       -5.00183       -1.35304
H         -5.49393       -7.49970       -1.10328
H         -2.33945       -5.87746        1.98230
H         -4.48384       -5.62257        3.10390
H         -5.63901      -13.83423        2.27168
H         -4.78254      -16.17802        2.66388
H         -1.05747      -13.79604        1.24484
H         -1.13490      -13.27439        3.61373
H         -1.02488      -16.74476        2.46985
H         -1.33971      -21.85824        3.71726
H         -6.62150      -22.19397        5.50337
H         -2.20249      -24.15547        4.33203
H         -5.77893      -19.95340        5.02723
