105

C        -17.50411        2.60276       14.79049
C        -18.05665        2.47346       16.06429
F        -18.00681        3.51334       16.90738
C        -18.63516        1.27900       16.46866
F        -19.15464        1.16028       17.69770
C        -18.66439        0.18761       15.61070
C        -18.09368        0.28667       14.33494
C        -17.50759        1.51488       13.90268
C        -16.92424        1.61281       12.61592
C        -16.89907        0.50176       11.78046
C        -17.48455       -0.68428       12.25007
C        -18.07853       -0.82131       13.49211
C        -17.43366       -1.74066       11.23634
O        -17.79020       -2.88734       11.40364
C        -16.88706       -1.08878       10.01022
C        -16.35876        0.23795       10.41045
C        -15.46802        0.99124        9.72321
C        -14.81143        0.53362        8.53860
N        -14.25158        0.17278        7.59390
C        -15.05134        2.27967       10.15631
N        -14.70092        3.32350       10.51486
C        -17.08518       -1.55794        8.77177
C        -17.74486       -2.78895        8.36514
C        -17.82662       -3.21686        7.09609
C        -18.42389       -4.45771        6.65654
C        -18.05079       -4.81052        5.41373
C        -17.08143       -3.89212        4.84211
S        -17.10490       -2.38745        5.74693
C        -16.20856       -4.12734        3.84798
C        -16.12340       -5.28934        2.99079
C        -15.21533       -5.16238        2.00777
C        -14.52486       -3.88502        2.01372
S        -14.88080       -3.03398        3.48645
C        -13.73036       -3.42502        1.02915
C        -13.03569       -2.10936        0.93439
C        -11.74668       -1.96662        0.38210
C        -11.03795       -0.69703        0.36991
N         -9.85169       -0.58048       -0.26237
C         -9.37153       -1.67417       -0.89045
C        -10.02654       -2.88632       -0.85583
N        -11.20028       -3.05218       -0.20778
F         -9.52536       -3.93978       -1.51661
F         -8.24301       -1.54118       -1.60166
C        -11.57530        0.46535        0.94250
C        -12.93770        0.40794        1.33273
C        -13.69382       -0.89247        1.28126
N        -15.00443       -0.71621        1.52675
S        -15.21615        0.84522        2.01456
N        -13.69644        1.44010        1.74492
C        -10.88681        1.76867        0.99632
C        -10.11902        2.23386        1.99542
C         -9.54805        3.56321        2.01512
C         -9.07763        3.92953        3.21725
C         -9.26502        2.91662        4.24744
S         -9.77163        1.39714        3.48740
C         -9.18079        3.11082        5.58074
C         -8.84571        4.35816        6.24761
C         -8.97095        4.31794        7.58205
C         -9.42794        3.04230        8.09027
S         -9.59719        1.88754        6.79024
C         -9.72709        2.82988        9.38427
C        -10.27013        1.62456        9.97157
C        -11.08250        1.43273       11.02623
C        -11.33597       -0.02497       11.32701
O        -10.86839       -1.00650       10.78574
C        -12.26747       -0.07586       12.44984
C        -12.80035       -1.24491       12.98545
C        -13.66606       -1.14693       14.07604
C        -13.96194        0.13600       14.61014
C        -14.81156        0.22186       15.72602
C        -15.36090       -0.92839       16.28764
C        -15.07803       -2.17530       15.75462
C        -14.23500       -2.29341       14.65534
F        -15.61513       -3.27725       16.29500
F        -16.18496       -0.81761       17.33827
C        -13.40481        1.29776       14.01861
C        -12.55646        1.20892       12.91370
C        -11.85855        2.21984       12.02128
C        -12.05206        3.56607       12.11517
C        -11.54178        4.53956       11.20780
N        -11.15680        5.39524       10.53024
C        -12.85820        4.17569       13.12730
N        -13.51477        4.66717       13.94678
H        -17.05493        3.55522       14.51888
H        -19.10711       -0.74050       15.96439
H        -16.50902        2.56920       12.31205
H        -18.51514       -1.77439       13.78081
H        -16.76490       -0.93934        7.93883
H        -18.16692       -3.41948        9.14288
H        -19.06737       -5.05107        7.29099
H        -18.36024       -5.72538        4.93089
H        -16.75479       -6.15716        3.11644
H        -15.03119       -5.92133        1.26073
H        -13.52245       -4.09132        0.19312
H        -11.10585        2.41278        0.14868
H         -9.55308        4.21238        1.14972
H         -8.66574        4.91034        3.41124
H         -8.55646        5.25635        5.72013
H         -8.80651        5.17209        8.22662
H         -9.49853        3.63018       10.07694
H         -9.92826        0.73037        9.43820
H        -12.53178       -2.20829       12.55624
H        -15.06911        1.18131       16.16801
H        -14.02727       -3.28741       14.26714
H        -13.66905        2.24643       14.47059
