97

C         -2.48518        2.51951        1.37255
C         -1.61942        2.95403        0.36982
F         -0.98883        4.12746        0.51304
C         -1.40159        2.18190       -0.76240
F         -0.54539        2.59215       -1.70747
C         -2.07025        0.97688       -0.93013
C         -2.96271        0.53196        0.05399
C         -3.15729        1.29429        1.24630
C         -3.99795        0.80440        2.27727
C         -4.65567       -0.40909        2.11505
C         -4.48707       -1.08253        0.89785
C         -3.65685       -0.66092       -0.12559
C         -5.24999       -2.32835        0.89317
O         -5.57518       -2.94216       -0.10061
C         -5.58836       -2.58973        2.32873
C         -5.50856       -1.26564        2.99700
C         -6.18089       -0.87140        4.10880
C         -7.06198       -1.74749        4.81286
N         -7.76632       -2.47158        5.38550
C         -6.10553        0.45022        4.62482
N         -6.03296        1.53035        5.03923
C         -5.69631       -3.81461        2.87418
C         -5.50586       -5.04421        2.16789
C         -4.66013       -5.35493        1.10043
C         -4.78725       -6.69208        0.69795
C         -5.65452       -7.38506        1.50797
S         -6.35755       -6.47626        2.70718
C         -5.68236       -8.72970        1.08145
C         -4.84067       -8.87014       -0.00118
C         -4.23940       -7.57840       -0.32087
C         -3.39700       -7.26884       -1.32603
C         -2.96019       -8.24879       -2.25884
N         -2.60041       -9.04681       -3.01985
C         -2.89609       -5.94987       -1.51352
N         -2.46721       -4.88125       -1.66262
C         -4.79406      -10.20042       -0.45636
C         -5.60597      -11.02587        0.32256
S         -6.42571      -10.13102        1.56883
C         -5.78654      -12.45097        0.18399
C         -6.08962      -13.36869        1.17060
C         -6.16284      -14.70294        0.67392
C         -5.91535      -14.77750       -0.68226
S         -5.61360      -13.22411       -1.33512
C         -5.90644      -15.95298       -1.51702
C         -5.15700      -16.16794       -2.67493
C         -5.45723      -17.42032       -3.24316
C         -6.39733      -18.10175       -2.50242
S         -6.92975      -17.30880       -1.14778
C         -6.70954      -19.30826       -3.15836
C         -5.98813      -19.37062       -4.32758
C         -5.09838      -18.21309       -4.41525
C         -4.12782      -17.97970       -5.31949
C         -3.87821      -18.88859       -6.38299
N         -3.70856      -19.66174       -7.23170
C         -3.26837      -16.84669       -5.22069
N         -2.56214      -15.93291       -5.13239
C         -6.36595      -20.48219       -5.10210
C         -7.27632      -21.29744       -4.42132
S         -7.72550      -20.59228       -2.89014
C         -7.90575      -22.51180       -4.82276
C         -7.34312      -23.42761       -5.62420
C         -8.26603      -24.36668       -6.33956
O         -9.39826      -24.68004       -6.03860
C         -7.54105      -24.76286       -7.56189
C         -8.05159      -25.51958       -8.60427
C         -7.22283      -25.76510       -9.70586
C         -5.91224      -25.19917       -9.74578
C         -5.08832      -25.45310      -10.85127
C         -5.53905      -26.26448      -11.88681
C         -6.81111      -26.81709      -11.84677
C         -7.65817      -26.56699      -10.77129
F         -7.23398      -27.60582      -12.84376
F         -4.72616      -26.51572      -12.92181
C         -5.44324      -24.41191       -8.67643
C         -6.24489      -24.22249       -7.56131
C         -6.01938      -23.56367       -6.24617
C         -4.81617      -23.38347       -5.64508
C         -4.69429      -23.11694       -4.24825
N         -4.56919      -22.92309       -3.11097
C         -3.57961      -23.51240       -6.33592
N         -2.57150      -23.59386       -6.90679
H         -2.62177        3.15226        2.24562
H         -1.88093        0.39414       -1.82817
H         -4.08497        1.38480        3.19173
H         -3.54172       -1.27115       -1.01822
H         -5.86357       -3.92557        3.94201
H         -4.00661       -4.63137        0.63330
H         -4.19595      -10.57374       -1.27892
H         -6.23554      -13.10969        2.21240
H         -6.37451      -15.56431        1.29636
H         -4.45971      -15.43697       -3.06718
H         -6.01402      -20.69941       -6.10199
H         -8.95143      -22.63552       -4.53430
H         -9.06488      -25.90975       -8.54833
H         -4.08375      -25.04195      -10.91483
H         -8.64744      -27.01702      -10.77399
H         -4.45101      -23.97549       -8.74690
