105

C         -8.72566       -4.42819      -10.01218
C         -9.85269       -5.15184      -10.39573
F        -10.30015       -5.04943      -11.65467
C        -10.50201       -5.97920       -9.49132
F        -11.56691       -6.69625       -9.87494
C        -10.05428       -6.07646       -8.17899
C         -8.93102       -5.34658       -7.76413
C         -8.23295       -4.52464       -8.70042
C         -7.05234       -3.84894       -8.31164
C         -6.57700       -3.98117       -7.01192
C         -7.31372       -4.76449       -6.11136
C         -8.47420       -5.44116       -6.44756
C         -6.61537       -4.86597       -4.82355
O         -7.10024       -5.24465       -3.77922
C         -5.23030       -4.35494       -5.09329
C         -5.32982       -3.53151       -6.32143
C         -4.53086       -2.49611       -6.67364
C         -3.41975       -2.09702       -5.87434
N         -2.51128       -1.79228       -5.21989
C         -4.77467       -1.69650       -7.82535
N         -4.98245       -1.05129       -8.76851
C         -4.13519       -4.83722       -4.47765
C         -4.20654       -5.88275       -3.51200
C         -4.30585       -5.81716       -2.12033
C         -4.40341       -7.10809       -1.55247
C         -4.40237       -8.08053       -2.52450
S         -4.17607       -7.53416       -4.07358
C         -4.65224       -9.32586       -1.92002
C         -4.79690       -9.15748       -0.56584
C         -4.57768       -7.74574       -0.24301
C         -4.48495       -7.17848        0.97517
C         -4.60944       -7.94733        2.16487
N         -4.70234       -8.58517        3.12872
C         -4.19322       -5.79599        1.12723
N         -3.94282       -4.67052        1.24790
C         -5.14983      -10.37350        0.06930
C         -5.26760      -11.42778       -0.85118
S         -4.89081      -10.86426       -2.45600
C         -5.65803      -12.81740       -0.59686
C         -5.81250      -13.90620       -1.47811
C         -5.53041      -13.83091       -2.87833
N         -5.25990      -13.74136       -4.00147
C         -6.20817      -15.06721       -0.77836
C         -6.29790      -14.87803        0.55563
S         -5.99761      -13.31728        1.04734
S         -6.66936      -16.26497        1.43500
C         -6.70731      -17.13258       -0.00818
C         -6.48484      -16.39617       -1.11913
C         -6.60512      -17.14459       -2.31365
C         -6.59297      -16.66675       -3.66076
N         -6.63625      -16.35537       -4.77677
C         -6.82820      -18.50004       -2.02476
S         -6.96769      -18.74846       -0.30018
C         -6.95487      -19.62963       -2.94009
C         -6.36430      -19.80011       -4.19974
C         -6.73557      -21.03224       -4.78794
C         -7.55321      -21.75268       -3.95134
S         -7.94651      -21.00627       -2.52833
C         -7.89724      -22.96447       -4.57599
C         -7.34088      -22.99957       -5.83214
C         -6.52249      -21.79799       -6.02233
C         -5.71790      -21.50175       -7.06197
C         -5.58361      -22.37773       -8.17397
N         -5.46706      -23.10355       -9.07254
C         -4.91238      -20.33110       -7.07160
N         -4.23182      -19.39156       -7.06298
C         -7.74519      -24.15656       -6.53581
C         -8.60122      -24.95508       -5.76657
S         -8.72430      -24.32777       -4.13730
C         -9.21967      -26.18848       -6.13451
C        -10.40595      -26.64209       -5.70187
C        -10.65730      -28.11484       -5.84543
O        -10.13848      -28.89076       -6.61929
C        -11.60834      -28.45307       -4.77080
C        -12.00263      -29.72939       -4.40235
C        -12.84988      -29.86409       -3.29612
C        -13.25250      -28.70416       -2.56665
C        -14.08962      -28.85476       -1.45102
C        -14.53197      -30.11864       -1.07286
C        -14.14568      -31.24363       -1.78694
C        -13.30548      -31.12703       -2.88979
F        -14.58130      -32.45658       -1.42073
F        -15.34124      -30.23827       -0.01168
C        -12.82042      -27.42450       -2.97062
C        -12.02250      -27.29276       -4.09854
C        -11.46651      -26.11711       -4.82421
C        -12.01802      -24.88388       -4.86372
C        -11.64128      -23.91041       -5.84106
N        -11.35801      -23.12328       -6.64168
C        -13.06679      -24.47647       -3.98702
N        -13.90326      -24.14825       -3.25301
H         -8.24034       -3.79963      -10.75467
H        -10.58301       -6.73799       -7.49756
H         -6.51303       -3.27565       -9.06077
H         -8.97194       -6.06274       -5.70754
H         -3.13450       -4.56647       -4.80010
H         -4.35411       -4.87531       -1.58769
H         -5.34404      -10.48909        1.12908
H         -5.70653      -19.06919       -4.65477
H         -7.48052      -24.41062       -7.55620
H         -8.61545      -26.83977       -6.77079
H        -11.64746      -30.59051       -4.96302
H        -14.41741      -27.99695       -0.86887
H        -13.02168      -32.03004       -3.42390
H        -13.12187      -26.56197       -2.38303
