102

C         -4.09396        2.25835        4.46587
C         -3.51060        2.36336        5.72696
F         -3.58972        3.52550        6.38891
C         -2.86005        1.27963        6.29981
F         -2.32188        1.38279        7.52238
C         -2.75799        0.07726        5.61265
C         -3.31940       -0.04514        4.33506
C         -4.02380        1.05302        3.75198
C         -4.64933        0.91355        2.48950
C         -4.55570       -0.29070        1.80615
C         -3.80932       -1.32148        2.39315
C         -3.20107       -1.24173        3.63299
C         -3.83729       -2.51317        1.54971
O         -3.04254       -3.42655        1.60571
C         -4.96964       -2.29016        0.59451
C         -5.15251       -0.81892        0.53964
C         -5.61850       -0.09420       -0.50547
C         -6.05083       -0.70469       -1.71944
N         -6.41173       -1.20984       -2.69896
C         -5.64739        1.32844       -0.49523
N         -5.67030        2.48909       -0.47511
C         -5.76091       -3.26483        0.11133
C         -5.62023       -4.65116        0.43221
C         -5.17356       -5.27918        1.60008
C         -5.10392       -6.67222        1.45407
C         -5.62960       -7.07115        0.25013
S         -6.13513       -5.83998       -0.74033
C         -5.61578       -8.47677        0.20240
C         -5.07217       -8.96205        1.37207
C         -4.67546       -7.83917        2.22007
C         -4.02710       -7.86525        3.40143
C         -3.65247       -9.09011        4.01875
N         -3.35236      -10.08909        4.52764
C         -3.67490       -6.67191        4.09456
N         -3.40215       -5.70503        4.67690
C         -5.09181      -10.36977        1.40068
C         -5.63606      -10.88542        0.22029
S         -6.11467       -9.62826       -0.87766
C         -5.86844      -12.27859       -0.14258
N         -5.86751      -12.60671       -1.44490
C         -6.09469      -13.89899       -1.72381
C         -6.32483      -14.84952       -0.75928
C         -6.30299      -14.40354        0.54709
N         -6.06753      -13.12219        0.87856
C         -6.54782      -15.34058        1.64738
C         -6.56086      -14.97622        2.94081
C         -6.80167      -15.88215        4.01720
C         -6.82347      -15.57181        5.38314
C         -7.08534      -16.71061        6.17064
C         -7.25869      -17.82775        5.38758
S         -7.11591      -17.57986        3.76109
C         -7.52042      -18.93452        6.21286
C         -7.50383      -18.51940        7.52274
C         -7.22597      -17.08400        7.57730
C         -7.12470      -16.30151        8.66954
C         -7.25841      -16.84105        9.98109
N         -7.36559      -17.31860       11.03415
C         -6.88245      -14.90601        8.57212
N         -6.69687      -13.75922        8.48519
C         -7.78731      -19.58228        8.39828
C         -7.98606      -20.77816        7.70312
S         -7.86446      -20.53985        5.98190
C         -8.31866      -22.07432        8.18181
C         -7.88239      -22.58692        9.33887
C         -8.61948      -23.77371        9.88385
O         -9.34204      -24.54409        9.28819
C         -8.35058      -23.76609       11.33219
C         -8.86715      -24.64436       12.26876
C         -8.49735      -24.46568       13.60721
C         -7.68215      -23.35203       13.97611
C         -7.32006      -23.17588       15.31764
C         -7.72327      -24.10079       16.27367
C         -8.50131      -25.19222       15.91431
C         -8.90177      -25.37461       14.59393
F         -8.86714      -26.09044       16.83849
F         -7.33778      -23.93520       17.54588
C         -7.21029      -22.46139       12.99747
C         -7.48569      -22.71159       11.66296
C         -6.97735      -22.12060       10.39649
C         -5.74395      -21.57352       10.25295
C         -5.11097      -21.42122        8.98412
N         -4.53866      -21.31457        7.98067
C         -4.92123      -21.22143       11.36209
N         -4.26210      -20.92573       12.27018
H         -4.59920        3.12915        4.05643
H         -2.24318       -0.75440        6.08760
H         -5.21846        1.75031        2.09493
H         -2.68126       -2.10639        4.03987
H         -6.60938       -3.02014       -0.52266
H         -4.86866       -4.73780        2.48504
H         -4.75055      -11.01006        2.20650
H         -6.08766      -14.15516       -2.77887
H         -6.51094      -15.88171       -1.02339
H         -6.72320      -16.36625        1.34127
H         -6.37966      -13.93622        3.20847
H         -6.64957      -14.56565        5.74723
H         -7.86332      -19.51073        9.47483
H         -9.04903      -22.63628        7.59601
H         -9.51409      -25.45819       11.95179
H         -6.69935      -22.34039       15.63233
H         -9.50830      -26.24233       14.34923
H         -6.60850      -21.61125       13.30565
