106

C          3.56147       -0.77099        1.20263
C          4.76446       -1.31003        0.75043
F          5.91891       -0.75734        1.14590
C          4.77438       -2.40687       -0.09944
F          5.93452       -2.92786       -0.52050
C          3.58218       -2.97525       -0.52776
C          2.36100       -2.43755       -0.10151
C          2.33887       -1.32513        0.79298
C          1.10524       -0.80500        1.25530
C         -0.08983       -1.36643        0.81947
C         -0.01865       -2.44301       -0.07576
C          1.16293       -2.99239       -0.54378
C         -1.35377       -2.95628       -0.38850
O         -1.60290       -3.75401       -1.26738
C         -2.27722       -2.27144        0.57593
C         -1.53213       -1.11123        1.12386
C         -2.06212        0.01033        1.67146
C         -3.46958        0.20995        1.78317
N         -4.61697        0.35566        1.87410
C         -1.26412        1.09406        2.13237
N         -0.60479        1.96698        2.51829
C         -3.43235       -2.81582        0.99511
C         -3.89880       -4.07307        0.52384
C         -4.74390       -4.34809       -0.54906
C         -4.94250       -5.73881       -0.69386
C         -4.26837       -6.44968        0.26692
S         -3.42800       -5.52681        1.36169
C         -4.54647       -7.81823        0.09222
C         -5.42136       -7.98169       -0.95874
C         -5.67554       -6.66119       -1.55857
C         -6.36985       -6.36371       -2.67060
C         -7.02674       -7.36855       -3.42677
N         -7.56748       -8.19196       -4.02702
C         -6.45805       -5.02709       -3.16005
N         -6.52683       -3.93965       -3.56575
C         -5.82731       -9.33895       -1.08931
C         -5.17664      -10.14107       -0.15035
S         -4.09318       -9.21396        0.85159
C         -5.32702      -11.62216        0.07453
C         -5.03561      -12.17805        1.30800
O         -5.27661      -13.50562        1.32071
C         -5.71417      -13.82505        0.08339
C         -5.75337      -12.71519       -0.75119
C         -6.15641      -12.85825       -2.14689
O         -6.99844      -13.70002       -2.45496
C         -5.52121      -12.02229       -3.15373
C         -6.06896      -11.65136       -4.36879
C         -5.16386      -10.90173       -5.17404
C         -3.99580      -10.60363       -4.50316
S         -3.89610      -11.50112       -3.04419
C         -2.95194       -9.68956       -4.89705
C         -1.61036       -9.73593       -4.52831
C         -0.91120       -8.62523       -5.03136
C         -1.72037       -7.78788       -5.76894
S         -3.30149       -8.28729       -5.87313
C         -0.95048       -6.68729       -6.21068
C          0.32808       -6.82684       -5.71956
C          0.43939       -8.08427       -4.98820
C          1.54366       -8.64400       -4.45710
C          2.80730       -8.00269       -4.55172
N          3.81454       -7.43518       -4.65723
C          1.50547       -9.90765       -3.80802
N          1.46714      -10.93796       -3.27584
C          1.13390       -5.71955       -6.03488
C          0.49420       -4.86105       -6.93086
S         -1.18218       -5.32407       -7.13511
C          0.99242       -3.70797       -7.60798
C          2.26608       -3.53965       -8.00219
C          2.69513       -2.14225       -8.34287
O          1.99472       -1.18894       -8.61146
C          4.16259       -2.13384       -8.21445
C          4.98833       -1.03318       -8.38748
C          6.37015       -1.21904       -8.26230
C          6.88044       -2.50335       -7.90704
C          8.26736       -2.68761       -7.80904
C          9.13320       -1.63210       -8.07454
C          8.63654       -0.38281       -8.41731
C          7.26461       -0.16578       -8.50346
F          9.47699        0.62647       -8.68195
F         10.45544       -1.83845       -8.00991
C          6.00203       -3.58408       -7.69509
C          4.63845       -3.41515       -7.89437
C          3.48754       -4.36423       -7.95587
C          3.59934       -5.68943       -8.22544
C          2.51789       -6.45231       -8.75803
N          1.66558       -7.09386       -9.21475
C          4.81124       -6.42092       -8.06800
N          5.78800       -7.02779       -7.91355
H          3.59847        0.08544        1.87115
H          3.62345       -3.83563       -1.19064
H          1.12738        0.01716        1.96506
H          1.13366       -3.84428       -1.21778
H         -4.02152       -2.37208        1.79016
H         -5.15947       -3.56569       -1.17210
H         -6.57328       -9.70923       -1.78211
H         -4.69717      -11.76629        2.24958
H         -5.93536      -14.87477       -0.06606
H         -7.07934      -11.90832       -4.66919
H         -5.39458      -10.54750       -6.17189
H         -1.19856      -10.52850       -3.91584
H          2.14951       -5.56227       -5.69895
H          0.28820       -2.88539       -7.74796
H          4.56002       -0.06760       -8.64555
H          8.69373       -3.65476       -7.55319
H          6.91208        0.82411       -8.78079
H          6.42546       -4.54188       -7.40924
