105

C          1.14940        0.86346        2.28249
C          2.45304        0.61780        2.70301
F          3.15740        1.61028        3.26391
C          3.01734       -0.64187        2.55925
F          4.26256       -0.87749        2.99332
C          2.29637       -1.67484        1.97290
C          0.98356       -1.45203        1.53725
C          0.38799       -0.16479        1.71072
C         -0.95833        0.05189        1.34642
C         -1.70217       -0.99964        0.83108
C         -1.07831       -2.24179        0.64714
C          0.24639       -2.49313        0.97109
C         -2.04874       -3.25510        0.21493
O         -1.77897       -4.35695       -0.21101
C         -3.38645       -2.60887        0.42319
C         -3.14350       -1.15393        0.49380
C         -4.01151       -0.17292        0.14644
C         -5.32887       -0.46403       -0.31463
N         -6.39822       -0.70798       -0.69088
C         -3.65498        1.20694        0.14518
N         -3.36543        2.32713        0.15673
C         -4.49505       -3.30167        0.72877
C         -4.61082       -4.76379        0.64874
C         -4.30102       -5.64847        1.68357
O         -3.91935       -5.10824        2.88812
C         -3.25474       -5.98797        3.79401
C         -4.43492       -7.02882        1.45126
C         -4.92435       -7.58703        0.24046
C         -5.24523       -6.65146       -0.77125
C         -5.06550       -5.27313       -0.56816
O         -5.84447       -7.07424       -1.93489
C         -5.37429       -6.40821       -3.11307
C         -5.04632       -9.08893        0.11356
C         -5.37071       -9.96459        1.18909
C         -5.30672      -11.41788        1.08525
N         -5.45095      -12.16117        2.20788
C         -5.75958      -11.55369        3.37067
C         -5.93084      -10.19853        3.44478
N         -5.73297       -9.40697        2.37144
F         -6.28764       -9.62053        4.60013
F         -5.92656      -12.32136        4.45661
C         -5.13002      -12.11224       -0.14482
C         -4.96183      -11.25237       -1.27014
C         -4.78900       -9.75980       -1.11874
N         -4.31826       -9.21342       -2.25479
S         -4.46899      -10.32791       -3.45397
N         -4.98847      -11.61171       -2.56779
C         -5.15422      -13.62046       -0.29949
C         -4.35644      -14.35390       -1.21370
O         -3.44192      -13.67237       -1.97690
C         -2.82894      -14.34772       -3.07429
C         -4.47078      -15.75478       -1.29571
C         -5.32978      -16.49568       -0.47247
C         -6.10101      -15.80302        0.46459
C         -6.01474      -14.39731        0.52034
O         -6.86901      -16.54192        1.32662
C         -8.00884      -15.90960        1.89939
C         -5.40254      -17.93795       -0.78712
C         -5.49783      -19.01692       -0.00073
C         -5.71474      -20.36683       -0.61483
O         -5.54149      -20.70315       -1.76673
C         -6.21169      -21.21995        0.48295
C         -6.47733      -22.57280        0.42018
C         -6.89589      -23.20620        1.59532
C         -7.16288      -22.42956        2.76695
C         -7.60956      -23.07118        3.92801
C         -7.71704      -24.45724        3.95794
C         -7.40753      -25.21474        2.83652
C         -7.01921      -24.60033        1.65109
F         -7.46484      -26.55208        2.89129
F         -8.09554      -25.05798        5.09394
C         -6.90654      -21.04782        2.77979
C         -6.32809      -20.47011        1.66337
C         -5.59046      -19.19578        1.44552
C         -4.76775      -18.65012        2.36848
C         -3.58407      -17.95467        1.96437
N         -2.57150      -17.50430        1.63587
C         -4.88915      -18.91417        3.76089
N         -5.01999      -19.13255        4.89571
H          0.73936        1.86052        2.42353
H          2.76438       -2.65184        1.88246
H         -1.40136        1.02602        1.53238
H          0.65364       -3.48920        0.83788
H         -5.41742       -2.81600        1.03163
H         -3.01326       -5.42688        4.70156
H         -2.31656       -6.34477        3.35595
H         -3.88852       -6.82619        4.10487
H         -4.16876       -7.71024        2.24983
H         -5.30391       -4.56825       -1.36001
H         -5.53647       -7.07259       -3.96660
H         -4.30153       -6.17937       -3.06964
H         -5.95467       -5.49687       -3.28899
H         -2.52112      -13.59911       -3.81033
H         -3.49997      -15.03585       -3.60188
H         -1.93523      -14.87001       -2.72074
H         -3.86615      -16.31260       -2.00373
H         -6.62579      -13.87638        1.24530
H         -8.46551      -16.62064        2.59436
H         -8.73875      -15.67685        1.11845
H         -7.75801      -15.02152        2.48683
H         -5.39505      -18.12554       -1.86683
H         -6.29772      -23.12101       -0.50249
H         -7.83526      -22.51273        4.83302
H         -6.77838      -25.22431        0.79448
H         -7.08933      -20.47285        3.68309
