109

C         -8.24260        1.40598       -1.27433
C         -9.59667        1.63599       -1.03741
F        -10.22431        2.60168       -1.72178
C        -10.29429        0.87524       -0.10983
F        -11.60066        1.08893        0.09567
C         -9.64621       -0.11469        0.61633
C         -8.28023       -0.34874        0.40743
C         -7.56085        0.40513       -0.56918
C         -6.19246        0.13564       -0.82226
C         -5.53966       -0.85315       -0.10081
C         -6.27741       -1.53711        0.86967
C         -7.61737       -1.32210        1.14586
C         -5.44971       -2.53756        1.52625
O         -5.71101       -2.98453        2.61989
C         -4.24148       -2.70963        0.65523
C         -4.16389       -1.44361       -0.13146
C         -3.04788       -0.86328       -0.63523
C         -1.75991       -1.46010       -0.50413
N         -0.72068       -1.96521       -0.40553
C         -3.06709        0.40782       -1.27624
N         -3.09350        1.44267       -1.80148
C         -3.57449       -3.86105        0.43646
C         -3.88734       -5.13922        1.00783
C         -4.46466       -5.51402        2.22177
C         -4.72754       -6.89289        2.29153
C         -4.28077       -7.55305        1.17288
S         -3.50891       -6.58110        0.06800
C         -4.64575       -8.91448        1.27271
C         -5.33669       -9.10622        2.44903
C         -5.35280       -7.83822        3.21238
C         -5.74127       -7.61518        4.48373
C         -6.20356       -8.67200        5.31092
N         -6.56432       -9.53550        5.98941
C         -5.63758       -6.32478        5.11825
N         -5.54807       -5.29956        5.65661
C         -5.83651      -10.43363        2.52169
C         -5.39262      -11.24584        1.45244
S         -4.46392      -10.27382        0.33479
C         -5.54423      -12.72492        1.23729
C         -5.54303      -13.47766        0.00097
O         -5.40831      -12.72010       -1.14579
C         -6.46321      -12.82791       -2.10099
C         -5.58577      -14.93284       -0.05348
O         -5.44035      -15.72199       -1.17086
C         -4.98093      -15.31854       -2.44422
C         -5.76794      -15.74802        1.12317
C         -5.77965      -15.01254        2.33214
C         -5.65710      -13.55283        2.38878
N         -5.66448      -13.20594        3.68650
O         -5.81756      -14.36029        4.41170
N         -5.90355      -15.45858        3.59243
C         -5.96536      -17.23131        1.17346
C         -5.59212      -18.18580        2.14354
C         -6.05389      -19.49286        1.82482
C         -6.78057      -19.47771        0.65968
S         -6.91917      -18.00216       -0.07685
C         -7.32925      -20.75560        0.43916
C         -6.98190      -21.58930        1.47247
C         -6.06043      -20.86886        2.35930
C         -5.30453      -21.39365        3.34427
C         -5.33361      -22.79075        3.63765
N         -5.34234      -23.92932        3.84960
C         -4.37092      -20.60499        4.06895
N         -3.59502      -19.97311        4.65023
C         -7.65557      -22.83539        1.37920
C         -8.50720      -22.87542        0.26664
S         -8.26133      -21.45143       -0.73342
C         -9.39628      -23.91311       -0.16818
C        -10.56552      -23.69312       -0.79578
C        -11.12148      -24.77374       -1.68157
O        -10.96131      -25.97161       -1.59085
C        -11.81751      -24.04968       -2.77212
C        -12.30327      -24.58579       -3.95373
C        -12.77775      -23.70201       -4.93672
C        -12.71816      -22.29157       -4.71448
C        -13.14609      -21.41507       -5.72249
C        -13.64618      -21.91800       -6.91881
C        -13.72627      -23.28683       -7.12767
C        -13.29280      -24.18011       -6.15117
F        -14.21799      -23.76372       -8.27908
F        -14.05334      -21.06407       -7.86781
C        -12.23397      -21.78748       -3.49463
C        -11.82273      -22.67154       -2.50839
C        -11.30343      -22.47021       -1.13560
C        -11.66770      -21.47707       -0.28754
C        -11.34582      -21.51012        1.10138
N        -11.11098      -21.52973        2.23826
C        -12.46705      -20.37521       -0.70572
N        -13.10640      -19.47871       -1.06988
H         -7.73525        2.02133       -2.01230
H        -10.21895       -0.69424        1.33630
H         -5.68717        0.70082       -1.59977
H         -8.11681       -1.91851        1.90592
H         -2.81162       -3.88785       -0.33979
H         -4.72659       -4.81395        2.99800
H         -6.45816      -10.80744        3.32767
H         -5.99046      -12.91161       -3.08731
H         -7.06259      -11.91536       -2.12018
H         -7.12543      -13.68448       -1.93993
H         -4.51298      -16.18628       -2.92103
H         -4.24267      -14.51568       -2.41813
H         -5.83810      -15.08258       -3.08125
H         -5.04698      -17.92324        3.04349
H         -7.59680      -23.65004        2.09389
H         -9.02874      -24.93595       -0.07585
H        -12.28474      -25.66084       -4.11137
H        -13.10153      -20.33632       -5.59316
H        -13.36530      -25.24513       -6.35472
H        -12.17141      -20.71201       -3.35116
