105

C         -0.15636        1.53085       -0.82903
C         -0.24429        1.97582       -2.14473
F          0.63452        2.88576       -2.58594
C         -1.21080        1.46654       -3.00036
F         -1.25495        1.86308       -4.27942
C         -2.13407        0.53174       -2.54515
C         -2.07079        0.07313       -1.22124
C         -1.03963        0.55096       -0.35572
C         -0.87678        0.00156        0.93485
C         -1.72446       -1.01192        1.35959
C         -2.78269       -1.38246        0.52120
C         -2.98120       -0.87594       -0.75212
C         -3.53469       -2.47838        1.12849
O         -4.69847       -2.74026        0.91540
C         -2.59992       -3.08027        2.13194
C         -1.67350       -1.97834        2.50300
C         -0.98934       -1.81875        3.66058
C         -0.93341       -2.82743        4.66374
N         -0.84493       -3.66990        5.45636
C         -0.30092       -0.61187        3.97465
N          0.24003        0.38444        4.22301
C         -2.54331       -4.39458        2.40981
C         -3.31885       -5.41205        1.76083
C         -3.84272       -5.49480        0.46286
C         -4.47236       -6.73046        0.21791
C         -4.31240       -7.57914        1.28355
S         -3.61265       -6.90408        2.62717
C         -4.80135       -8.84702        0.92146
C         -5.33487       -8.79153       -0.34412
C         -5.18129       -7.42715       -0.85779
C         -5.61786       -6.91606       -2.02715
C         -6.32880       -7.70745       -2.96617
N         -6.92613       -8.35276       -3.72956
C         -5.39894       -5.55279       -2.37580
N         -5.20516       -4.44819       -2.67451
C         -5.84521      -10.05176       -0.74100
C         -5.60508      -11.04052        0.22730
S         -4.74420      -10.35333        1.58870
C         -5.90928      -12.49862        0.22548
C         -6.18454      -13.26447        1.38874
C         -6.38946      -14.69557        1.35749
N         -6.56630      -15.36911        2.51666
C         -6.60605      -14.68150        3.67549
C         -6.46388      -13.32170        3.70266
N         -6.26429      -12.61826        2.57255
F         -6.51442      -12.65131        4.86135
F         -6.80349      -15.36694        4.80920
C         -6.41933      -15.42791        0.15016
C         -6.17879      -14.69049       -1.04894
C         -5.90670      -13.20802       -1.00988
N         -5.67409      -12.70141       -2.23478
S         -5.82661      -13.92842       -3.32782
N         -6.17804      -15.17306       -2.30530
C         -6.74956      -16.87289        0.03203
C         -6.29673      -17.81119       -0.90408
C         -7.03836      -19.00802       -0.83842
C         -7.91886      -19.00466        0.21715
S         -7.95698      -17.59121        1.07737
C         -8.63758      -20.21808        0.22161
C         -8.22879      -20.97699       -0.85002
C         -7.23228      -20.23246       -1.61923
C         -6.73146      -20.52308       -2.83419
C         -7.23285      -21.61973       -3.59492
N         -7.68907      -22.47619       -4.22811
C         -5.75976      -19.69488       -3.46483
N         -4.95806      -19.03569       -3.97583
C         -8.87199      -22.23214       -0.87087
C         -9.77299      -22.37069        0.19079
S         -9.84235      -20.89871        1.13466
C        -10.64004      -23.47884        0.43719
C        -11.07253      -23.91850        1.62745
C        -12.25765      -24.84218        1.63291
O        -12.66242      -25.54432        0.73109
C        -12.89320      -24.65090        2.95072
C        -14.10716      -25.17410        3.36305
C        -14.60668      -24.77406        4.60869
C        -13.88731      -23.81588        5.38812
C        -14.42818      -23.38390        6.60825
C        -15.63334      -23.90871        7.06504
C        -16.31384      -24.86284        6.32239
C        -15.81450      -25.29351        5.09732
F        -17.46336      -25.37819        6.77880
F        -16.12917      -23.48623        8.23594
C        -12.64635      -23.32114        4.93837
C        -12.12663      -23.77653        3.73577
C        -10.84232      -23.53912        3.02473
C         -9.64185      -23.35808        3.62811
C         -8.41182      -23.51893        2.92187
N         -7.40925      -23.68190        2.36043
C         -9.51798      -23.13049        5.02864
N         -9.43753      -22.94225        6.17091
H          0.62407        1.94268       -0.19439
H         -2.87588        0.14995       -3.24247
H         -0.04037        0.33971        1.53927
H         -3.78086       -1.26995       -1.37555
H         -1.79866       -4.77184        3.10612
H         -3.74419       -4.70185       -0.26577
H         -6.34340      -10.25836       -1.68150
H         -5.54433      -17.57837       -1.64779
H         -8.71000      -23.02100       -1.59697
H        -11.02761      -23.96619       -0.45958
H        -14.64880      -25.86280        2.71957
H        -13.92134      -22.64326        7.22183
H        -16.37742      -26.03785        4.54018
H        -12.11646      -22.58742        5.54061
