121

C         -8.67073      -12.61648      -12.66597
C         -9.77204      -11.89835      -13.13352
F        -10.47342      -12.38408      -14.16729
C        -10.13941      -10.69842      -12.54529
F        -11.20887      -10.02288      -12.99218
C         -9.39647      -10.17537      -11.49488
C         -8.27885      -10.86942      -11.02256
C         -7.91134      -12.12518      -11.59414
C         -6.80980      -12.84883      -11.06336
C         -6.07174      -12.32452      -10.01048
C         -6.44937      -11.07279       -9.52224
C         -7.52441      -10.33638       -9.98605
C         -5.58180      -10.64773       -8.43148
O         -5.52236       -9.49470       -8.06261
C         -4.79573      -11.86453       -8.02317
C         -4.91174      -12.80598       -9.18644
C         -4.05822      -13.80609       -9.53102
C         -2.91165      -14.12704       -8.74887
N         -1.98361      -14.38698       -8.11780
C         -4.20674      -14.57449      -10.72493
N         -4.32863      -15.19658      -11.69568
C         -4.32655      -12.10435       -6.78384
C         -4.41598      -11.23078       -5.64732
C         -4.34380       -9.86571       -5.52128
C         -4.55972       -9.33113       -4.19053
C         -4.60932       -7.86748       -4.00046
C         -5.25975       -7.08224       -4.97283
C         -5.33062       -5.69040       -4.87406
C         -4.78765       -5.06776       -3.75449
C         -4.06607       -5.81615       -2.82155
C         -3.94416       -7.20441       -2.97316
O         -3.53094       -5.10219       -1.78161
C         -2.36010       -5.67053       -1.20460
O         -5.89459       -4.86351       -5.81030
C         -6.28166       -5.48636       -7.03412
C         -4.70855      -10.36042       -3.24597
S         -4.56953      -11.89306       -4.07969
C         -4.91321      -10.39038       -1.77652
C         -4.77157      -11.44942       -0.87739
C         -4.78418      -11.02744        0.51124
N         -4.49990      -11.85851        1.55455
C         -4.28508      -13.14076        1.15975
C         -3.86219      -14.07245        2.23185
O         -3.63457      -13.70727        3.37898
C         -3.66893      -15.48999        1.87349
C         -3.90232      -15.93564        0.63847
C         -4.33770      -15.03210       -0.44640
O         -4.66056      -15.50793       -1.52733
C         -4.38956      -13.57893       -0.15613
N         -4.58432      -12.75768       -1.23129
C         -5.15082       -9.70923        0.67787
S         -5.49281       -9.02850       -0.86858
C         -5.30928       -8.94935        1.91023
C         -6.08626       -7.83451        2.13328
C         -6.03115       -7.31088        3.48748
C         -6.86310       -6.17375        3.92994
C         -8.14806       -6.02134        3.36809
C         -8.95291       -4.92008        3.66429
C         -8.49706       -3.97144        4.56919
C         -7.22579       -4.08873        5.13275
C         -6.41743       -5.19266        4.82424
O         -6.70647       -3.18566        6.02526
C         -7.17099       -1.84410        5.87139
O        -10.18456       -4.89194        3.06757
C        -10.70488       -3.59492        2.77864
C         -5.09985       -8.00843        4.26397
S         -4.53948       -9.38723        3.36399
C         -4.68487       -7.86261        5.64003
C         -3.47127       -8.18417        6.12795
C         -3.27227       -8.40510        7.60596
O         -3.88039       -7.90469        8.52671
C         -2.23065       -9.46172        7.69487
C         -1.84688      -10.17365        8.81683
C         -1.07708      -11.33191        8.62791
C         -0.73396      -11.75511        7.30471
C         -0.09431      -12.99083        7.12456
C          0.23067      -13.77603        8.22602
C         -0.04125      -13.33256        9.51253
C         -0.68671      -12.11758        9.72142
F          0.29516      -14.08470       10.56928
F          0.80432      -14.97169        8.03249
C         -1.05864      -10.94873        6.19858
C         -1.77057       -9.77904        6.40949
C         -2.26392       -8.72500        5.50077
C         -1.54094       -8.15717        4.50706
C         -1.91657       -6.90195        3.93557
N         -2.18069       -5.86004        3.50528
C         -0.29318       -8.69836        4.08263
N          0.71922       -9.15591        3.74741
H         -8.41501      -13.55071      -13.15865
H         -9.70892       -9.23083      -11.05782
H         -6.58434      -13.81405      -11.50130
H         -7.76496       -9.37847       -9.52873
H         -3.91271      -13.08382       -6.55756
H         -4.16610       -9.21722       -6.36833
H         -5.69756       -7.58088       -5.83230
H         -4.88488       -3.99157       -3.62953
H         -3.34580       -7.78462       -2.28323
H         -1.97752       -4.97501       -0.45339
H         -1.58696       -5.80871       -1.96856
H         -2.57959       -6.61253       -0.69234
H         -6.65348       -4.71511       -7.71457
H         -7.09717       -6.19670       -6.86226
H         -5.42875       -5.97494       -7.52048
H         -3.33653      -16.14711        2.67022
H         -3.78569      -16.98176        0.37585
H         -6.70907       -7.40049        1.35984
H         -8.54175       -6.76024        2.67341
H         -9.14836       -3.16381        4.86765
H         -5.42919       -5.24517        5.27177
H         -6.67223       -1.22334        6.62059
H         -8.24610       -1.75169        6.05594
H         -6.91292       -1.45796        4.87893
H        -11.71492       -3.72240        2.37783
H        -10.09522       -3.09814        2.01639
H        -10.80070       -2.96448        3.66721
H         -5.45853       -7.55923        6.34638
H         -2.19162       -9.86781        9.80076
H          0.13590      -13.36935        6.13179
H         -0.89727      -11.80993       10.74209
H         -0.79451      -11.26896        5.19304
