107

C         -9.85680        1.57257        0.20043
C        -11.24838        1.51058        0.17031
F        -11.94452        2.58758       -0.21826
C        -11.91155        0.34648        0.53028
F        -13.24891        0.28515        0.47536
C        -11.19761       -0.76969        0.94932
C         -9.79744       -0.72676        1.00433
C         -9.10515        0.45678        0.60480
C         -7.69038        0.48737        0.60109
C         -6.97278       -0.63603        0.99820
C         -7.69195       -1.76891        1.40976
C         -9.07500       -1.84322        1.42891
C         -6.78111       -2.88245        1.70392
O         -7.07729       -3.90417        2.28603
C         -5.45151       -2.44418        1.17188
C         -5.51671       -0.97380        1.02606
C         -4.47181       -0.10706        1.05445
C         -3.13350       -0.54603        1.21947
N         -2.04599       -0.93013        1.36529
C         -4.64759        1.29641        0.98859
N         -4.80913        2.44629        0.93180
C         -4.54819       -3.29932        0.67020
C         -4.71721       -4.76107        0.60370
C         -5.27881       -5.37987       -0.51719
O         -5.61801       -4.56139       -1.56763
C         -6.69498       -4.99735       -2.38909
C         -5.38027       -6.77963       -0.55141
C         -4.89163       -7.62137        0.48440
C         -4.34684       -6.95436        1.61287
C         -4.27942       -5.54851        1.66754
O         -3.76289       -7.69606        2.61695
C         -3.98366       -7.18807        3.93748
C         -4.94846       -9.12443        0.32932
C         -5.22176      -10.04276        1.37601
C         -5.13999      -11.47790        1.21163
N         -5.26510      -12.26298        2.31152
C         -5.59255      -11.72067        3.50931
C         -5.78702      -10.37980        3.63545
N         -5.61144       -9.55277        2.57652
C         -6.18158       -9.76222        4.86617
N         -6.48510       -9.28324        5.87802
C         -5.83127      -12.65555        4.56913
N         -6.07001      -13.41657        5.40903
C         -5.01189      -12.12327       -0.05516
C         -4.89444      -11.22982       -1.15780
C         -4.77736       -9.73513       -0.95720
N         -4.51378       -9.10128       -2.11689
S         -4.58601      -10.20463       -3.33522
N         -4.94139      -11.55153       -2.46344
C         -5.13611      -13.61370       -0.24290
C         -4.45974      -14.40043       -1.20153
O         -3.53859      -13.80215       -2.02751
C         -3.46405      -14.32619       -3.35752
C         -4.67489      -15.79554       -1.26846
C         -5.52573      -16.46948       -0.37446
C         -6.19295      -15.70758        0.58791
C         -6.03281      -14.31754        0.59392
O         -7.06252      -16.31582        1.45886
C         -7.07793      -15.77240        2.78520
C         -5.72853      -17.91593       -0.60520
C         -5.93264      -18.90772        0.27410
C         -6.36934      -20.25433       -0.21447
O         -6.28618      -20.70697       -1.33639
C         -6.95424      -20.92243        0.96481
C         -7.38567      -22.23132        1.04052
C         -7.81978      -22.69966        2.28563
C         -7.94039      -21.79872        3.39007
C         -8.38794      -22.28032        4.62676
C         -8.64429      -23.63693        4.78977
C         -8.48499      -24.51859        3.72926
C         -8.09522      -24.05838        2.47593
F         -8.68926      -25.83040        3.90792
F         -9.01864      -24.09106        5.99328
C         -7.53276      -20.46245        3.26068
C         -6.93346      -20.06652        2.07702
C         -6.02195      -18.94984        1.73252
C         -5.10576      -18.47042        2.60783
C         -3.83451      -18.02237        2.15120
N         -2.75976      -17.76997        1.79726
C         -5.27828      -18.52079        4.02050
N         -5.47006      -18.52353        5.16564
H         -9.37596        2.50109       -0.09745
H        -11.74737       -1.66718        1.22076
H         -7.19193        1.38383        0.24385
H         -9.56371       -2.76559        1.73315
H         -3.66415       -2.95901        0.13923
H         -6.87539       -4.21909       -3.13761
H         -7.60709       -5.11286       -1.79539
H         -6.45844       -5.91450       -2.93629
H         -5.80806       -7.23559       -1.43682
H         -3.84368       -5.04915        2.52708
H         -3.77670       -7.99714        4.64447
H         -5.02150       -6.86632        4.09011
H         -3.28578       -6.37720        4.16411
H         -3.19124      -13.51062       -4.03520
H         -4.41641      -14.73694       -3.71554
H         -2.67671      -15.08452       -3.40972
H         -4.15363      -16.38091       -2.02366
H         -6.66073      -13.75190        1.27273
H         -7.59194      -16.49099        3.43115
H         -7.64096      -14.83693        2.82672
H         -6.06281      -15.63614        3.17815
H         -5.76973      -18.17338       -1.66650
H         -7.30581      -22.87807        0.17126
H         -8.49599      -21.62379        5.48673
H         -7.97036      -24.77770        1.67121
H         -7.60835      -19.79144        4.11212
