93

C        -14.42900       -4.48158       -1.34632
C        -15.40045       -5.48052       -1.30487
F        -16.58830       -5.26298       -1.88536
C        -15.14506       -6.69292       -0.67983
F        -16.07223       -7.66010       -0.67235
C        -13.92646       -6.91795       -0.05442
C        -12.94401       -5.92027       -0.06314
C        -13.17678       -4.68619       -0.74627
C        -12.15301       -3.71005       -0.82635
C        -10.92809       -3.95168       -0.21699
C        -10.76800       -5.15106        0.49426
C        -11.73096       -6.13800        0.58456
C         -9.41006       -5.25309        1.03252
O         -9.06577       -5.94330        1.96657
C         -8.62740       -4.23922        0.26478
C         -9.61507       -3.23656       -0.19631
C         -9.39289       -1.91790       -0.40962
C         -8.10459       -1.33672       -0.24221
N         -7.04870       -0.86452       -0.11334
C        -10.44196       -1.01472       -0.74299
N        -11.30476       -0.28787       -1.01369
C         -7.37493       -4.45623       -0.17269
C         -6.69270       -5.69030        0.03776
C         -6.68617       -6.82746       -0.71710
C         -5.87405       -7.87019       -0.24969
S         -6.01391       -9.29051       -1.37959
C         -7.09236       -8.23190       -2.32944
N         -7.39043       -7.00478       -1.88110
C         -7.64869       -8.80293       -3.59600
C         -5.20741       -7.56946        0.91398
S         -5.59600       -5.92348        1.33894
C         -4.26680       -8.40616        1.71682
C         -3.37612       -9.37093        1.18413
C         -2.49397      -10.18885        1.99218
N         -1.73079      -11.13534        1.38649
C         -1.76651      -11.26179        0.04841
C         -2.56725      -10.46493       -0.71187
N         -3.34449       -9.51912       -0.15361
C         -2.37592      -10.03006        3.39547
C         -3.21428       -9.03706        3.97636
C         -4.19591       -8.24522        3.13585
N         -4.94689       -7.42475        3.89345
S         -4.45475       -7.56584        5.45571
N         -3.23199       -8.64550        5.26162
C         -1.44529      -10.81389        4.25201
C         -1.49679      -11.25776        5.55081
C         -0.40395      -12.02285        5.98074
S         -0.55374      -12.48493        7.71983
C         -2.05030      -11.49834        7.64941
N         -2.47375      -11.01106        6.47565
C         -2.76925      -11.23469        8.93348
C          0.51556      -12.25167        5.00544
S          0.13195      -11.25819        3.65920
C          1.70635      -13.01202        5.14501
C          2.28826      -13.70463        4.15278
C          3.74792      -14.02468        4.28427
O          4.40107      -14.14036        5.29875
C          4.25592      -14.05921        2.89674
C          5.58317      -14.12240        2.50801
C          5.87529      -13.99794        1.14356
C          4.81820      -13.77853        0.20636
C          5.12942      -13.60753       -1.14996
C          6.45139      -13.67506       -1.57732
C          7.47471      -13.91194       -0.67065
C          7.19814      -14.06855        0.68401
F          8.74385      -13.98930       -1.09302
F          6.72678      -13.51133       -2.87831
C          3.47982      -13.73624        0.64106
C          3.19660      -13.91233        1.98644
C          1.92890      -13.97198        2.75518
C          0.75555      -14.47944        2.30438
C         -0.28748      -14.85716        3.20552
N         -1.10773      -15.21574        3.93830
C          0.53016      -14.78985        0.93596
N          0.35827      -15.01625       -0.19450
H        -14.66774       -3.54997       -1.85274
H        -13.75513       -7.87720        0.42750
H        -12.33744       -2.80478       -1.39876
H        -11.51002       -7.06003        1.11532
H         -6.90331       -3.77919       -0.87756
H         -6.99166       -9.56426       -4.03108
H         -7.77998       -8.01390       -4.34262
H         -8.62260       -9.26097       -3.39906
H         -1.12042      -12.01251       -0.39008
H         -2.62115      -10.55614       -1.78998
H         -2.12303      -11.36951        9.80681
H         -3.63219      -11.89893        9.02748
H         -3.12737      -10.19921        8.94877
H          2.22757      -12.93083        6.09998
H          6.36322      -14.24211        3.25558
H          4.35497      -13.42408       -1.89047
H          8.02552      -14.24622        1.36606
H          2.69078      -13.55228       -0.08290
