97

C        -11.10482       -1.41906       -4.63467
C        -12.34760       -1.98252       -4.92399
F        -13.06136       -1.50786       -5.95436
C        -12.84056       -3.03200       -4.16314
F        -14.01761       -3.59544       -4.46781
C        -12.11895       -3.51206       -3.07718
C        -10.87710       -2.94733       -2.75121
C        -10.33443       -1.90318       -3.56130
C         -9.03540       -1.40287       -3.29387
C         -8.29997       -1.93294       -2.23979
C         -8.89415       -2.90945       -1.42660
C        -10.15818       -3.42409       -1.65134
C         -7.93653       -3.39561       -0.41845
O         -8.20134       -3.92429        0.63888
C         -6.60554       -2.95972       -0.93413
C         -6.88435       -1.77687       -1.78603
C         -6.05943       -0.70717       -1.97405
C         -4.77908       -0.64055       -1.35781
N         -3.74539       -0.59379       -0.85582
C         -6.47193        0.43945       -2.72284
N         -6.81149        1.35792       -3.32367
C         -5.50109       -3.73107       -0.91965
C         -5.39062       -5.12946       -0.43637
C         -4.90428       -5.43077        0.82592
C         -4.65061       -6.76056        1.21750
N         -4.04538       -6.83485        2.47609
C         -4.00380       -5.65786        3.05341
S         -4.49756       -4.33962        2.10388
C         -4.97087       -7.86980        0.33609
C         -5.46549       -7.49297       -0.97290
C         -5.62605       -6.14634       -1.36625
N         -5.99189       -5.90896       -2.69355
C         -6.14449       -7.04593       -3.31606
S         -6.02364       -8.42668       -2.34165
C         -4.75134       -9.33510        0.82140
C         -4.89954       -9.81125        2.16851
C         -4.57283      -11.18233        2.61358
N         -4.63688      -11.49977        3.91605
C         -4.98329      -10.55614        4.80480
C         -5.40992       -9.32408        4.39493
N         -5.40291       -8.96559        3.09085
F         -5.89579       -8.45631        5.29330
F         -4.91312      -10.86859        6.10716
C         -4.20937      -12.24822        1.76499
C         -4.13498      -11.84524        0.40124
C         -4.36197      -10.39976       -0.05905
N         -4.10980      -10.29324       -1.37377
S         -4.00691      -11.80176       -2.01792
N         -3.83518      -12.65317       -0.63161
C         -3.95808      -13.69241        2.18437
C         -3.19470      -14.06426        3.33331
C         -3.03360      -15.40686        3.71893
N         -2.40433      -15.59559        4.94919
C         -1.96032      -14.46323        5.42505
S         -2.26905      -13.10427        4.46370
C         -3.49573      -16.43187        2.86711
C         -4.21141      -16.09839        1.71500
C         -4.50853      -14.76295        1.40063
N         -5.36854      -14.63353        0.30919
C         -5.52315      -15.78202       -0.30184
S         -4.84836      -17.13328        0.47555
C         -3.33694      -17.87034        3.23145
C         -2.35425      -18.47514        3.92447
C         -2.69079      -19.72448        4.69459
O         -3.45628      -20.61345        4.38987
C         -1.99307      -19.54941        5.99281
C         -2.26502      -20.22156        7.17251
C         -1.78762      -19.66739        8.37017
C         -1.06096      -18.43626        8.34626
C         -0.71913      -17.81774        9.55867
C         -1.04596      -18.42193       10.76827
C         -1.69342      -19.64869       10.79017
C         -2.06825      -20.27268        9.60387
F         -1.98215      -20.23657       11.95913
F         -0.73310      -17.80317       11.91507
C         -0.72972      -17.83397        7.11865
C         -1.17371      -18.41212        5.93867
C         -1.14132      -17.94227        4.53481
C         -0.15837      -17.25398        3.91268
C         -0.21242      -16.96833        2.51662
N         -0.25475      -16.72817        1.38301
C          0.97144      -16.76384        4.61782
N          1.87108      -16.33597        5.22070
H        -10.75171       -0.60601       -5.26451
H        -12.53197       -4.33793       -2.50388
H         -8.61825       -0.64950       -3.95721
H        -10.53874       -4.21677       -1.01298
H         -4.62647       -3.43225       -1.49541
H         -3.65459       -5.51714        4.06758
H         -6.37700       -7.10133       -4.37270
H         -1.39427      -14.41256        6.34792
H         -6.06035      -15.87191       -1.23695
H         -4.21749      -18.47561        3.00205
H         -2.90525      -21.09956        7.16268
H         -0.21598      -16.85440        9.58186
H         -2.59434      -21.22174        9.66056
H         -0.20361      -16.88348        7.11047
