143

C        -15.43081      -16.79792      -11.82119
C        -14.59531      -16.82140      -12.93702
F        -15.13314      -16.97304      -14.15477
C        -13.22109      -16.69183      -12.79594
F        -12.42492      -16.70425      -13.87351
C        -12.65404      -16.55612      -11.53588
C        -13.47289      -16.55602      -10.39883
C        -14.89078      -16.65920      -10.53268
C        -15.72178      -16.62345       -9.38411
C        -15.15318      -16.52538       -8.11993
C        -13.75591      -16.46846       -8.03935
C        -12.90487      -16.46408       -9.13159
C        -13.32316      -16.38416       -6.64736
O        -12.19989      -16.62475       -6.26290
C        -14.55459      -16.05100       -5.86207
C        -15.69813      -16.43593       -6.72642
C        -16.94059      -16.78967       -6.31462
C        -17.31749      -16.81074       -4.93937
N        -17.62709      -16.81850       -3.82171
C        -17.94710      -17.22631       -7.21742
N        -18.76987      -17.57770       -7.96041
C        -14.55147      -15.38128       -4.69587
C        -13.37109      -14.93662       -4.03299
C        -12.23853      -14.32241       -4.52021
C        -11.15975      -14.17761       -3.56858
C         -9.81081      -13.74970       -3.72879
C         -9.26624      -13.41238       -5.08702
C         -8.38344      -12.41324       -5.48792
C         -8.07656      -12.43052       -6.88216
C         -8.78820      -13.39353       -7.55672
S         -9.60398      -14.41396       -6.45818
C         -8.88878      -13.63037       -9.02742
Cl        -6.98022      -11.32223       -7.59016
C         -8.95493      -13.69831       -2.60313
C         -9.38375      -14.10444       -1.32889
C        -10.73897      -14.49640       -1.16688
C        -11.60122      -14.54824       -2.28758
S        -13.25187      -15.08308       -2.34876
C        -11.22006      -14.88230        0.19303
C        -10.62592      -15.69406        1.15089
C        -11.37417      -15.79392        2.36238
C        -12.57804      -15.13158        2.29044
S        -12.68295      -14.22518        0.84434
C        -13.68412      -15.07993        3.29400
Cl       -10.79870      -16.66563        3.71935
C         -8.27904      -14.06626       -0.39146
C         -7.10794      -13.56895       -0.91154
S         -7.30435      -13.18315       -2.54416
C         -5.84990      -13.38984       -0.23316
C         -5.23765      -14.22663        0.67303
C         -3.99779      -13.68555        1.18607
N         -3.22259      -14.32439        2.10673
C         -3.75854      -15.52911        2.47334
C         -2.99127      -16.27122        3.49989
O         -1.98244      -15.81952        4.02662
C         -3.47633      -17.60702        3.89348
C         -4.59118      -18.12916        3.38134
C         -5.41418      -17.39663        2.40021
O         -6.44389      -17.90810        1.97875
C         -4.94592      -16.06114        1.96156
N         -5.74628      -15.43580        1.04462
C         -3.69950      -12.44404        0.66731
S         -4.89693      -11.98397       -0.48402
C         -2.56819      -11.58887        0.94000
C         -1.28207      -11.94966        1.27010
C         -0.33432      -10.85218        1.23079
C          1.08262      -10.82748        1.29404
C          1.83752      -12.09928        1.48739
C          1.60506      -13.37101        0.98318
C          2.57232      -14.33730        1.38891
C          3.57951      -13.78147        2.14312
S          3.20412      -12.16508        2.55353
C          4.85683      -14.40306        2.60491
Cl         2.47560      -15.97552        0.90147
C          1.76894       -9.60632        1.09915
C          1.10197       -8.37410        1.10542
C         -0.31906       -8.38865        1.12661
C         -1.00912       -9.62674        1.10421
S         -2.70930       -9.90095        0.95764
C         -1.09198       -7.10894        1.11455
C         -2.24298       -6.75441        0.41859
C         -2.72505       -5.44656        0.72217
C         -1.90741       -4.78463        1.60687
S         -0.65518       -5.80468        2.15932
C         -2.00949       -3.38867        2.12446
Cl        -4.16267       -4.82523        0.02982
C          2.06991       -7.29527        1.10170
C          3.38361       -7.68399        0.96205
S          3.43649       -9.36698        0.70456
C          4.53373       -6.84815        0.84845
C          5.77516       -7.17860        1.23250
C          6.91458       -6.44852        0.58820
O          6.91583       -5.33669        0.10469
C          8.02069       -7.42756        0.56066
C          9.22393       -7.29399       -0.10829
C         10.09625       -8.39015       -0.11318
C          9.70939       -9.61225        0.51974
C         10.57570      -10.71298        0.48044
C         11.81327      -10.60227       -0.14330
C         12.19765       -9.41062       -0.74169
C         11.34681       -8.30965       -0.74091
F         13.39939       -9.30787       -1.32497
F         12.63656      -11.65898       -0.15275
C          8.47588       -9.70823        1.18673
C          7.65118       -8.59775        1.24353
C          6.34537       -8.35032        1.90602
C          5.91492       -8.90694        3.05699
C          4.80428       -8.37192        3.78741
N          3.93217       -7.93090        4.40320
C          6.58245       -9.99732        3.68069
N          7.13653      -10.89563        4.16370
H        -16.50154      -16.90189      -11.97691
H        -11.57410      -16.46075      -11.45727
H        -16.79806      -16.66497       -9.52456
H        -11.83081      -16.38709       -8.98055
H        -15.48129      -15.12472       -4.19741
H        -12.14483      -14.07850       -5.56892
H         -7.95100      -11.68351       -4.81600
H         -9.57562      -12.90086       -9.47342
H         -9.26716      -14.63013       -9.26386
H         -7.91605      -13.51931       -9.51674
H         -9.67555      -16.19414        1.00667
H        -13.81363      -16.05078        3.78656
H        -14.64592      -14.82648        2.83443
H        -13.46444      -14.33437        4.06434
H         -8.34246      -14.39525        0.63752
H         -2.87596      -18.13846        4.62415
H         -4.94794      -19.11267        3.66811
H         -1.00780      -12.98416        1.42950
H          0.77972      -13.61650        0.32895
H          4.70904      -15.44681        2.89966
H          5.29515      -13.87543        3.45774
H          5.58862      -14.38577        1.78808
H         -2.75742       -7.40781       -0.27418
H         -3.05478       -3.08959        2.25015
H         -1.53553       -2.68766        1.42817
H         -1.52064       -3.28126        3.09827
H          1.82060       -6.24605        1.18163
H          4.38379       -5.90998        0.31227
H          9.46088       -6.36622       -0.62352
H         10.31002      -11.66032        0.94250
H         11.67929       -7.39468       -1.22327
H          8.18593      -10.65134        1.64070
