105

C         -5.89347       -0.52103        8.16970
C         -6.82468        0.45705        7.82527
F         -6.76681        1.65515        8.42195
C         -7.80006        0.20085        6.87269
F         -8.67604        1.15433        6.52774
C         -7.88397       -1.04702        6.26897
C         -6.97657       -2.05582        6.62012
C         -5.94044       -1.78979        7.56680
C         -4.98123       -2.78297        7.86828
C         -5.06527       -4.02893        7.26220
C         -6.12900       -4.26537        6.37409
C         -7.07639       -3.31917        6.03689
C         -6.01976       -5.60202        5.77772
O         -6.90862       -6.19535        5.20845
C         -4.62577       -6.04681        6.09377
C         -4.19079       -5.24337        7.26249
C         -3.29307       -5.59669        8.20866
C         -2.59511       -6.84472        8.15903
N         -2.02071       -7.84910        8.09843
C         -3.01492       -4.78974        9.34996
N         -2.78795       -4.11409       10.26449
C         -3.88913       -6.80905        5.26115
C         -4.36059       -7.30118        4.01303
C         -4.36005       -6.65435        2.77553
C         -4.83270       -7.52257        1.75219
C         -5.05684       -8.77266        2.25676
S         -4.92811       -8.94177        3.92517
C         -5.33038       -9.73714        1.31736
C         -5.52259       -9.32380        0.04158
S         -5.17988       -7.64017        0.05569
C         -5.90343      -10.47486       -0.68761
C         -5.86375      -11.56678        0.20550
N         -5.35477      -11.08999        1.42286
C         -4.62413      -11.83099        2.42473
C         -6.22779      -12.99234       -0.06929
C         -6.79124      -13.87907        0.88058
C         -7.12367      -15.25073        0.56820
N         -7.58845      -16.05988        1.54813
C         -7.76255      -15.56927        2.80758
C         -7.48814      -14.25933        3.09530
N         -7.01393      -13.42400        2.13528
C         -7.62454      -13.70112        4.40471
N         -7.72094      -13.27177        5.47975
C         -8.22501      -16.49788        3.79435
N         -8.59422      -17.23447        4.61206
C         -6.98269      -15.79608       -0.73101
C         -6.47475      -14.91514       -1.73236
C         -6.05705      -13.50838       -1.38833
N         -5.52313      -12.86734       -2.44469
S         -5.62258      -13.86452       -3.75060
N         -6.32249      -15.17455       -3.04357
C         -7.37104      -17.19480       -1.08423
C         -8.40120      -17.97415       -0.54845
C         -8.49074      -19.23197       -1.20448
C         -7.55112      -19.34234       -2.19063
S         -6.43459      -18.09299       -2.26311
C         -7.65407      -20.46616       -2.98210
C         -8.59767      -21.37477       -2.61218
S         -9.39295      -20.70694       -1.24793
C         -8.49154      -22.45841       -3.50939
C         -7.54102      -22.08727       -4.46661
N         -6.97643      -20.86129       -4.10017
C         -5.93963      -20.11097       -4.76994
C         -7.07737      -22.77986       -5.62750
C         -7.84233      -23.60508       -6.36038
C         -7.18077      -24.58522       -7.28339
O         -6.07288      -24.52237       -7.77196
C         -8.14582      -25.69742       -7.42117
C         -7.95828      -26.87219       -8.13049
C         -8.99704      -27.81379       -8.12948
C        -10.16925      -27.57743       -7.34675
C        -11.20046      -28.52671       -7.34574
C        -11.09679      -29.66922       -8.13085
C         -9.96725      -29.89152       -8.90575
C         -8.91375      -28.98191       -8.90123
F         -9.88583      -30.98416       -9.67724
F        -12.10911      -30.54663       -8.14471
C        -10.30882      -26.38362       -6.61795
C         -9.32365      -25.41400       -6.70997
C         -9.25294      -23.99447       -6.27798
C        -10.31853      -23.15894       -6.21290
C        -10.16594      -21.74947       -6.38285
N        -10.06654      -20.61653       -6.61310
C        -11.65977      -23.62630       -6.11902
N        -12.74197      -24.03129       -6.00775
H         -5.14066       -0.27661        8.91437
H         -8.65806       -1.21568        5.52551
H         -4.17018       -2.53485        8.55018
H         -7.84782       -3.56242        5.30957
H         -2.83685       -7.00238        5.46505
H         -4.01499       -5.64148        2.60858
H         -6.17234      -10.50148       -1.73576
H         -4.30869      -12.79256        2.01578
H         -5.25689      -11.96101        3.30390
H         -3.71724      -11.27888        2.68819
H         -9.07555      -17.65985        0.23690
H         -9.05443      -23.37964       -3.46627
H         -5.65531      -20.58546       -5.70934
H         -5.06547      -20.07313       -4.11449
H         -6.31359      -19.11053       -4.99935
H         -6.01520      -22.72309       -5.86504
H         -7.03911      -27.02942       -8.68872
H        -12.10579      -28.37913       -6.76210
H         -8.04685      -29.18843       -9.52345
H        -11.20543      -26.22825       -6.02386
