136

C         -3.13806        1.22470       -0.73521
C         -1.85944        1.14427       -1.27971
F         -1.11010        2.25663       -1.36298
C         -1.35085       -0.06632       -1.72786
F         -0.11476       -0.13874       -2.23087
C         -2.12603       -1.21645       -1.66136
C         -3.42187       -1.15848       -1.13535
C         -3.93915        0.07689       -0.63903
C         -5.22809        0.12778       -0.05742
C         -6.00344       -1.02403        0.00522
C         -5.47232       -2.20264       -0.53454
C         -4.20960       -2.30620       -1.09093
C         -6.40731       -3.31664       -0.37307
O         -6.35433       -4.37176       -0.97111
C         -7.43945       -2.82836        0.59780
C         -7.34682       -1.34230        0.58646
C         -8.32824       -0.46288        0.89717
C         -9.61308       -0.88529        1.32848
N        -10.65695       -1.27103        1.68264
C         -8.16808        0.97353        0.76308
N         -8.03788        2.12401        0.65739
C         -8.07550       -3.65395        1.44951
C         -7.82741       -5.06065        1.49039
C         -8.48328       -6.09600        0.86591
C         -7.94392       -7.41823        1.14549
C         -8.33130       -8.70275        0.67445
C         -9.48911       -8.80045       -0.27295
C        -10.71928       -8.15052       -0.26172
C        -11.54073       -8.44935       -1.39436
C        -10.94667       -9.34832       -2.24955
S         -9.38466       -9.76464       -1.70504
C        -11.45155       -9.89809       -3.54372
Cl       -13.06737       -7.71085       -1.63771
C         -7.63318       -9.85904        1.10894
C         -6.53435       -9.77950        1.98050
C         -6.08973       -8.48543        2.39189
C         -6.82841       -7.33102        1.99929
S         -6.55050       -5.67001        2.42979
C         -4.84047       -8.34147        3.22281
C         -4.52077       -7.44675        4.24001
C         -3.20578       -7.60594        4.77549
C         -2.53012       -8.65565        4.20064
S         -3.43808       -9.32022        2.91370
C         -1.18010       -9.20188        4.54450
Cl        -2.59642       -6.58583        6.00960
C         -6.07393      -11.12012        2.32476
C         -6.69723      -12.14685        1.65048
S         -7.95991      -11.51331        0.71292
C         -6.44995      -13.60237        1.67703
C         -6.68949      -14.39366        0.54834
C         -6.45873      -15.77208        0.56086
F         -6.74434      -16.41614       -0.57986
C         -5.96012      -16.44647        1.69035
C         -5.72849      -15.64954        2.82573
C         -5.96585      -14.26232        2.81178
F         -5.72394      -13.57963        3.94164
C         -5.68806      -17.91211        1.71522
C         -5.19202      -18.71236        2.72892
C         -5.14676      -20.14201        2.43931
C         -4.83184      -21.27319        3.25544
C         -4.43233      -21.07501        4.69221
C         -4.82209      -20.12232        5.62853
C         -4.21132      -20.27655        6.91301
C         -3.39659      -21.38186        6.97472
S         -3.21641      -22.07818        5.42587
C         -2.69642      -21.97569        8.15542
Cl        -4.53324      -19.20305        8.20838
C         -4.92422      -22.57851        2.69798
C         -5.10696      -22.77423        1.32087
C         -5.43991      -21.65726        0.50597
C         -5.48936      -20.36660        1.09382
S         -5.97702      -18.88977        0.35551
C         -5.78604      -21.86208       -0.95168
C         -5.59207      -21.05028       -2.06734
C         -6.01970      -21.63261       -3.30415
C         -6.51895      -22.90247       -3.13758
S         -6.66138      -23.27070       -1.47572
C         -6.95081      -23.90490       -4.16069
Cl        -5.86536      -20.80925       -4.79880
C         -4.85782      -24.15856        0.99357
C         -4.80184      -25.02084        2.06481
S         -4.95869      -24.13274        3.50278
C         -4.80330      -26.43704        1.97215
C         -4.21203      -27.34702        2.75974
C         -4.66679      -28.76118        2.53689
O         -5.25241      -29.22133        1.57760
C         -4.31417      -29.49047        3.75770
C         -4.65102      -30.80842        4.03014
C         -4.26987      -31.34207        5.26250
C         -3.58764      -30.51694        6.20738
C         -3.21869      -31.06960        7.44337
C         -3.50047      -32.40269        7.73040
C         -4.15675      -33.20132        6.80466
C         -4.54847      -32.67981        5.57723
F         -4.41669      -34.48562        7.08466
F         -3.12458      -32.91157        8.91124
C         -3.27940      -29.17290        5.89056
C         -3.61082      -28.65869        4.64292
C         -3.35021      -27.36020        3.94668
C         -2.29878      -26.53980        4.19822
C         -1.86224      -25.55787        3.27981
N         -1.45061      -24.76684        2.50868
C         -1.45495      -26.69980        5.34775
N         -0.77963      -26.82103        6.28228
H         -3.49503        2.19528       -0.39333
H         -1.70257       -2.15270       -2.02149
H         -5.57557        1.07499        0.34930
H         -3.85617       -3.26587       -1.46023
H         -8.71867       -3.27269        2.23607
H         -9.31621       -5.90744        0.20105
H        -11.02039       -7.45095        0.50808
H        -12.44436      -10.34676       -3.42901
H        -10.78864      -10.66914       -3.95221
H        -11.51976       -9.09471       -4.28461
H         -5.19223       -6.68245        4.60594
H         -0.46421       -8.39402        4.73166
H         -0.76719       -9.82482        3.74445
H         -1.23628       -9.81544        5.45167
H         -5.28297      -11.32180        3.03482
H         -7.05762      -13.96624       -0.38122
H         -5.36077      -16.07449        3.75509
H         -4.90848      -18.29386        3.68280
H         -5.53648      -19.33534        5.43150
H         -2.36886      -21.20367        8.85940
H         -1.81120      -22.55096        7.86499
H         -3.37417      -22.65065        8.69201
H         -5.14100      -20.06763       -2.03166
H         -7.12258      -23.44714       -5.14038
H         -7.88010      -24.40365       -3.86656
H         -6.17874      -24.67326       -4.28864
H         -4.80047      -24.54023       -0.01779
H         -5.41324      -26.81666        1.14848
H         -5.19370      -31.39401        3.29152
H         -2.69674      -30.47939        8.19267
H         -5.06103      -33.33290        4.87505
H         -2.77537      -28.56646        6.63830
