137

C        -12.55373        0.88970       -0.47727
C        -13.90064        0.64871       -0.20763
F        -14.80146        1.60369       -0.47412
C        -14.31360       -0.56400        0.32676
F        -15.61189       -0.79535        0.56269
C        -13.38568       -1.54977        0.62768
C        -12.02674       -1.31922        0.38711
C        -11.59037       -0.09162       -0.19959
C        -10.21829        0.11256       -0.49357
C         -9.29462       -0.87766       -0.17929
C         -9.76793       -2.04044        0.44577
C        -11.09679       -2.29466        0.72430
C         -8.67393       -2.97328        0.71585
O         -8.71210       -3.88812        1.50987
C         -7.53185       -2.47463       -0.10483
C         -7.82158       -1.04584       -0.38593
C         -6.91485       -0.06803       -0.62507
C         -5.51457       -0.33032       -0.67930
N         -4.37634       -0.56387       -0.73062
C         -7.28661        1.29777       -0.78244
N         -7.59648        2.40601       -0.91899
C         -6.61390       -3.28720       -0.65407
C         -6.59178       -4.70228       -0.47657
C         -5.90196       -5.46600        0.43608
C         -5.91682       -6.89829        0.17342
C         -5.22579       -7.97846        0.80158
C         -4.29403       -7.69812        1.95449
C         -3.46345       -6.60964        2.20478
C         -2.71085       -6.70834        3.41587
C         -2.88437       -7.92120        4.03769
S         -4.18247       -8.77037        3.32139
C         -2.14358       -8.48875        5.20660
Cl        -1.67168       -5.45774        3.95266
C         -5.40986       -9.30030        0.31322
C         -6.35072       -9.60245       -0.68734
C         -7.02080       -8.52376       -1.34575
C         -6.77955       -7.18802       -0.90459
S         -7.47415       -5.71258       -1.51455
C         -7.95197       -8.78768       -2.51339
C         -8.22595       -8.03486       -3.65601
C         -9.19641       -8.61654       -4.53620
C         -9.66285       -9.82148       -4.07240
S         -8.95226      -10.19856       -2.57741
C        -10.66957      -10.75156       -4.66714
Cl        -9.69858       -7.85076       -5.98339
C         -6.47443      -11.04368       -0.80120
C         -5.62067      -11.78832       -0.02525
S         -4.52407      -10.74234        0.72962
C         -5.54833      -13.24037        0.16220
C         -5.12959      -13.83331        1.36473
C         -5.07034      -15.22741        1.57447
F         -4.63437      -15.58411        2.79363
C         -5.43649      -16.21574        0.62370
C         -5.89379      -15.66875       -0.61748
C         -5.94244      -14.15903       -0.85687
N         -6.37358      -13.85526       -2.09484
S         -6.70904      -15.26877       -2.87387
N         -6.32817      -16.35192       -1.69301
C         -5.39470      -17.68173        0.84171
C         -5.73524      -18.73820        0.01281
C         -5.61101      -20.06982        0.57899
C         -5.82978      -21.37631        0.03420
C         -6.29313      -21.54741       -1.39525
C         -6.07328      -20.78596       -2.54069
C         -6.70266      -21.29983       -3.72418
C         -7.43060      -22.43969       -3.48071
S         -7.36748      -22.84552       -1.82939
C         -8.23926      -23.27822       -4.41981
Cl        -6.54982      -20.53114       -5.24817
C         -5.60654      -22.51105        0.86672
C         -5.37979      -22.38115        2.24493
C         -5.15533      -21.08481        2.77651
C         -5.22167      -19.95978        1.92370
S         -4.82348      -18.32580        2.30409
C         -4.82938      -20.91677        4.23097
C         -5.13989      -19.89538        5.12300
C         -4.70446      -20.13882        6.46115
C         -4.16552      -21.39514        6.60146
S         -3.83432      -22.05887        5.06692
C         -3.83025      -22.16032        7.83720
Cl        -4.94092      -19.00258        7.71693
C         -5.48422      -23.67381        2.88714
C         -5.43589      -24.75076        2.03130
S         -5.48559      -24.19320        0.43141
C         -5.41633      -26.15020        2.28835
C         -4.83468      -26.71978        3.35356
C         -5.26940      -28.10705        3.72781
O         -5.74876      -28.96136        3.01273
C         -5.08518      -28.18189        5.19118
C         -5.52290      -29.18982        6.03111
C         -5.38386      -28.99749        7.41168
C         -4.85403      -27.76636        7.91125
C         -4.77275      -27.56504        9.29569
C         -5.16788      -28.57132       10.17039
C         -5.65029      -29.77891        9.68539
C         -5.77019      -29.99591        8.31623
F         -6.00699      -30.75104       10.53532
F         -5.06991      -28.36484       11.49056
C         -4.40720      -26.77223        7.02293
C         -4.47623      -27.00717        5.65925
C         -4.04046      -26.22258        4.48110
C         -2.91061      -25.47941        4.42119
C         -2.37830      -25.00487        3.17663
N         -1.92189      -24.64140        2.18956
C         -2.10007      -25.22212        5.57281
N         -1.46535      -25.02453        6.52232
H        -12.27487        1.85178       -0.89903
H        -13.73586       -2.48923        1.04823
H         -9.92427        1.04061       -0.97719
H        -11.38168       -3.24013        1.17763
H         -5.89058       -2.90507       -1.36883
H         -5.34821       -4.99590        1.23684
H         -3.37050       -5.75769        1.54638
H         -1.07710       -8.23844        5.14330
H         -2.20590       -9.58199        5.24341
H         -2.52832       -8.08750        6.14892
H         -7.76616       -7.08194       -3.87844
H        -11.49935      -10.19557       -5.11501
H        -11.10178      -11.41885       -3.91239
H        -10.21302      -11.37507       -5.44343
H         -7.20319      -11.55443       -1.40675
H         -4.83481      -13.20487        2.20661
H         -6.07779      -18.57325       -0.99501
H         -5.47612      -19.88508       -2.56509
H         -8.76430      -22.65423       -5.15060
H         -9.00304      -23.85930       -3.89002
H         -7.60213      -23.98249       -4.96629
H         -5.68151      -18.99902        4.85235
H         -3.74673      -21.50880        8.71148
H         -2.88969      -22.70880        7.73731
H         -4.62576      -22.88775        8.04434
H         -5.52710      -23.80496        3.95803
H         -5.99799      -26.77848        1.61030
H         -5.97305      -30.08741        5.61479
H         -4.39321      -26.63571        9.71272
H         -6.15797      -30.95133        7.97291
H         -4.01824      -25.83605        7.41462
