88

N          7.15279        4.67146       -1.83359
C          6.95700        3.60827       -1.41192
C          6.69891        2.29800       -0.92145
C          7.26407        1.97039        0.34618
N          7.77173        1.69773        1.35579
C          6.05311        1.37574       -1.66855
C          5.81400       -0.02182       -1.31088
C          5.10590       -0.54018       -0.29204
C          4.42353        0.25434        0.72498
C          4.77249        0.08230        2.01844
C          4.24277        0.90233        3.10738
C          3.38416        1.94255        2.93129
C          3.01040        2.68832        4.11431
N          2.91302        2.19774        5.34400
C          2.59238        3.19691        6.21003
S          2.36570        3.23028        7.91501
C          2.18558        4.99615        7.82618
C          2.06396        5.77449        9.04346
C          1.45056        5.19715       10.10722
C          1.25048        5.84007       11.39593
C          1.62353        7.11120       11.65646
C          1.31866        7.67571       12.96457
C          0.56261        8.75564       13.20262
C          0.76181        9.47895       14.49963
O          1.21788        9.04713       15.53704
C          0.37481       10.87575       14.22551
C          0.52354       11.94762       15.09303
C          0.14653       13.21905       14.64360
C          0.23673       14.33642       15.48735
C         -0.15479       15.59075       15.02951
F         -0.07710       16.64342       15.85486
C         -0.62533       15.75283       13.73461
F         -1.00527       16.96261       13.30145
C         -0.71427       14.66334       12.87361
C         -0.33908       13.38397       13.31147
C         -0.45390       12.27034       12.45384
C         -0.12772       11.00302       12.92238
C         -0.22147        9.63832       12.32904
C         -1.07497        9.25727       11.34589
C         -1.39766        7.89610       11.09538
N         -1.75264        6.79960       10.90971
C         -1.83134       10.18941       10.58452
N         -2.44306       10.95656        9.96027
C          2.31694        7.82635       10.57430
C          2.53114        7.16766        9.25169
C          3.17268        7.95417        8.36028
Si         3.62426        9.63290        9.07826
C          2.81642        9.07636       10.67517
N          2.19482        5.46624        6.58665
C          2.44546        4.45163        5.71603
S          2.70781        4.42264        4.01641
C          2.91005        2.15911        1.54920
C          3.39972        1.28096        0.45233
C          2.79691        1.49449       -0.73696
Si         1.56454        2.90592       -0.66886
C          1.98262        3.05396        1.14701
C          5.88160       -0.81058       -2.58066
O          5.98810       -2.00871       -2.72138
C          5.60349        0.19629       -3.63055
C          5.10356       -0.08869       -4.88729
C          4.46166        0.94469       -5.57602
C          3.80447        0.67850       -6.78365
C          3.04165        1.66898       -7.39129
F          2.36931        1.37988       -8.51343
C          2.94693        2.93288       -6.82600
F          2.17010        3.86649       -7.39177
C          3.63032        3.23899       -5.65253
C          4.39125        2.25616       -5.00453
C          5.01037        2.53150       -3.76964
C          5.60250        1.48902       -3.07481
H          4.86198       -1.60275       -0.28860
H          5.52777       -0.65117        2.29572
H          4.62393        0.64539        4.09511
H          1.03059        4.19656       10.05388
H          0.71741        5.24360       12.13298
H          1.89231        7.22960       13.77911
H          0.92139       11.78514       16.09130
H          0.59983       14.24688       16.50791
H         -1.09374       14.82952       11.86825
H         -0.80413       12.43013       11.43918
H          3.44001        7.72142        7.34061
H          2.80341        9.72326       11.53889
H          2.93340        0.95107       -1.65715
H          1.44368        3.77401        1.73850
H          5.10281       -1.11286       -5.25167
H          3.83756       -0.30690       -7.24134
H          3.52042        4.23697       -5.23609
H          4.91687        3.51941       -3.32526
