143

C        -14.29364        0.09111        1.04031
C        -15.60988       -0.29379        1.29276
F        -16.60740        0.55736        1.01606
C        -15.89092       -1.54447        1.82231
F        -17.15901       -1.91859        2.04019
C        -14.86029       -2.42083        2.13834
C        -13.52668       -2.04530        1.92055
C        -13.22832       -0.77866        1.33400
C        -11.88346       -0.42530        1.05439
C        -10.85188       -1.30052        1.38319
C        -11.18874       -2.51146        2.00469
C        -12.48789       -2.90838        2.27297
C         -9.98740       -3.31445        2.26366
O         -9.90393       -4.23182        3.05170
C         -8.90777       -2.67812        1.44675
C         -9.36709       -1.28848        1.18163
C         -8.58864       -0.20356        0.95257
C         -7.16675       -0.29318        0.90568
N         -6.01139       -0.38424        0.86133
C         -9.12119        1.11009        0.80802
N         -9.56334        2.17490        0.68772
C         -7.90161       -3.37365        0.88413
C         -7.76462       -4.79304        0.99047
C         -7.11706       -5.56206        1.92939
C         -7.10228       -6.99415        1.65529
C         -6.50770       -8.07890        2.36025
C         -5.74111       -7.79593        3.61599
C         -4.88355       -6.74708        3.92461
C         -4.35156       -6.80165        5.24895
C         -4.77532       -7.91390        5.93744
S         -5.91111       -8.79763        5.01865
C         -4.44584       -8.36029        7.32377
Cl        -3.31942       -5.58008        5.86085
C         -6.60955       -9.39990        1.85234
C         -7.36349       -9.69914        0.70843
C         -7.99603       -8.62016        0.01151
C         -7.82631       -7.28222        0.48310
S         -8.43531       -5.80080       -0.20149
C         -8.80813       -8.88789       -1.23061
C         -8.97428       -8.13158       -2.38820
C         -9.82283       -8.72939       -3.36921
C        -10.27153       -9.96842       -2.98219
S         -9.82264      -10.28856       -1.36792
C        -11.08073      -10.95751       -3.75692
Cl       -10.18519       -7.95619       -4.85351
C         -7.31453      -11.13553        0.45952
C         -6.59377      -11.88969        1.36361
S         -5.81708      -10.82833        2.43351
C         -6.34105      -13.35562        1.40922
C         -6.26832      -14.15998        0.25166
C         -5.97162      -15.57188        0.30277
N         -5.94896      -16.25774       -0.85561
C         -6.18274      -15.66267       -2.03984
C         -6.45341      -14.31718       -2.09448
N         -6.48306      -13.57811       -0.94876
C         -6.73486      -13.62964       -3.30736
N         -6.96940      -13.09276       -4.29041
C         -6.13905      -16.50545       -3.19880
N         -6.08286      -17.19701       -4.12788
C         -5.70236      -16.28005        1.50527
C         -5.81085      -15.50291        2.70047
C         -6.15356      -14.03014        2.65213
N         -6.25768      -13.49903        3.88408
S         -5.88701      -14.66346        4.98341
N         -5.62753      -15.92821        3.96299
C         -5.32265      -17.73146        1.58726
C         -5.10757      -18.54578        2.68279
C         -4.72980      -19.92041        2.41261
C         -4.51183      -21.02770        3.27960
C         -4.79283      -20.86018        4.74792
C         -4.59045      -19.77667        5.59952
C         -5.14445      -19.94975        6.90736
C         -5.71212      -21.18980        7.07143
S         -5.59874      -22.10175        5.64322
C         -6.42330      -21.76254        8.25067
Cl        -5.12483      -18.70291        8.08100
C         -4.10327      -22.27188        2.73029
C         -3.88860      -22.43453        1.34908
C         -4.13466      -21.33212        0.48093
C         -4.58385      -20.10883        1.03402
S         -5.09249      -18.69801        0.20133
C         -3.89854      -21.44734       -1.00571
C         -3.42543      -20.51094       -1.92472
C         -3.27001      -21.01772       -3.25279
C         -3.57219      -22.35591       -3.33344
S         -4.30116      -22.88664       -1.88476
C         -3.38446      -23.29249       -4.48295
Cl        -2.70921      -20.04745       -4.54723
C         -3.43435      -23.77869        1.07876
C         -3.35688      -24.61221        2.16898
S         -3.78420      -23.76464        3.56075
C         -3.02003      -25.98892        2.26462
C         -2.13217      -26.59186        1.46503
C         -2.21607      -28.07985        1.34412
O         -2.64708      -28.87638        2.14931
C         -1.76278      -28.36636       -0.02932
C         -1.84544      -29.58486       -0.67607
C         -1.49703      -29.62808       -2.02941
C         -1.10442      -28.43032       -2.70544
C         -0.79531      -28.48426       -4.07062
C         -0.85691      -29.69557       -4.75092
C         -1.22281      -30.85989       -4.08989
C         -1.54545      -30.83514       -2.73742
F         -1.27271      -32.02315       -4.75224
F         -0.55705      -29.72698       -6.05619
C         -1.02535      -27.21164       -2.00790
C         -1.31795      -27.18909       -0.65454
C         -1.28050      -26.11826        0.37114
C         -0.41805      -25.07355        0.39773
C         -0.19816      -24.29323        1.57188
N          0.02965      -23.66607        2.52109
C          0.40825      -24.74231       -0.71410
N          1.05444      -24.47934       -1.63937
H        -14.11938        1.07828        0.61990
H        -15.11387       -3.39325        2.55301
H        -11.69297        0.52511        0.56295
H        -12.67278       -3.87832        2.72739
H         -7.21462       -2.89719        0.19030
H         -6.65077       -5.10218        2.79077
H         -4.64662       -5.94590        3.23740
H         -3.49156       -7.94924        7.66970
H         -4.36864       -9.45162        7.39124
H         -5.22812       -8.02856        8.01381
H         -8.50673       -7.17221       -2.55855
H        -11.94387      -10.47323       -4.22482
H        -11.45940      -11.76893       -3.12661
H        -10.47340      -11.40960       -4.55009
H         -7.79910      -11.61027       -0.37961
H         -5.22602      -18.17482        3.68530
H         -4.11387      -18.85189        5.30220
H         -5.75644      -21.84834        9.11431
H         -6.82692      -22.76001        8.04166
H         -7.26760      -21.12079        8.52165
H         -3.17175      -19.48869       -1.67565
H         -3.87815      -22.91530       -5.38369
H         -3.78093      -24.29213       -4.27520
H         -2.31598      -23.40735       -4.70369
H         -3.19524      -24.14165        0.09284
H         -3.60254      -26.59334        2.96274
H         -2.19120      -30.46324       -0.13727
H         -0.49901      -27.59460       -4.62047
H         -1.83157      -31.76462       -2.25238
H         -0.74664      -26.30854       -2.54382
