97

C         -8.55616       -0.10343        6.26376
C         -7.78170        0.16222        7.39202
F         -8.36033        0.70601        8.47150
C         -6.42905       -0.14473        7.40857
F         -5.69608        0.08707        8.50629
C         -5.82075       -0.70315        6.29111
C         -6.57549       -0.97415        5.14102
C         -7.97588       -0.68965        5.12476
C         -8.75413       -1.02764        3.99097
C         -8.15382       -1.64072        2.89591
C         -6.77368       -1.88568        2.94584
C         -5.97133       -1.55540        4.02500
C         -6.33965       -2.65950        1.77487
O         -5.19411       -2.82421        1.41649
C         -7.61066       -3.13858        1.13299
C         -8.67748       -2.23690        1.62679
C         -9.82950       -1.90311        0.99172
C        -10.17270       -2.45111       -0.27359
N        -10.45643       -2.91647       -1.30388
C        -10.74578       -0.95076        1.52040
N        -11.49257       -0.18440        1.96807
C         -7.72850       -4.32443        0.50631
C         -6.65687       -5.25186        0.40224
C         -5.75943       -5.36077       -0.61731
C         -4.77006       -6.33022       -0.35057
C         -3.87835       -6.28393       -1.46559
C         -4.25281       -5.42210       -2.50098
S         -5.67182       -4.45019       -2.17749
C         -3.58565       -5.23766       -3.82640
F         -2.79358       -7.00584       -1.55689
C         -4.86374       -7.00946        0.83999
S         -6.41387       -6.52314        1.51602
C         -4.04323       -8.03051        1.57405
C         -3.32429       -9.09617        0.98632
C         -2.56382      -10.07423        1.76256
N         -1.93994      -11.07296        1.11269
C         -1.93285      -11.10703       -0.24360
C         -2.63360      -10.18503       -0.97130
N         -3.36169       -9.21397       -0.35770
C         -2.63399      -10.17379       -2.40280
N         -2.60998      -10.19562       -3.56437
C         -1.14118      -12.14189       -0.84075
N         -0.49589      -12.97266       -1.33652
C         -2.44983      -10.05273        3.17389
C         -3.18042       -8.99623        3.80601
C         -3.97037       -7.97846        3.00315
N         -4.55244       -7.06513        3.80234
S         -4.25828       -7.46933        5.36516
N         -3.26842       -8.76094        5.13055
C         -1.66314      -11.01118        4.01844
C         -0.46195      -11.65661        3.78397
C         -0.04194      -12.38931        4.90606
C          1.16443      -13.05973        4.60607
C          1.61221      -12.89153        3.30045
S          0.68763      -11.73013        2.36587
C          2.78274      -13.55577        2.65043
F          1.78955      -13.82373        5.46390
C         -0.78992      -12.33541        6.03598
S         -2.25757      -11.54650        5.56971
C         -0.60137      -12.93337        7.31941
C         -0.96663      -12.39141        8.49136
C         -1.15450      -13.31327        9.66596
O         -0.63269      -14.38767        9.86708
C         -2.22077      -12.68089       10.47661
C         -2.92113      -13.26119       11.52241
C         -4.03776      -12.57598       12.02737
C         -4.42633      -11.32833       11.44758
C         -5.58190      -10.68379       11.90937
C         -6.33161      -11.24564       12.93662
C         -5.94044      -12.44203       13.52082
C         -4.80412      -13.11111       13.07439
F         -6.66156      -12.96902       14.51957
F         -7.43812      -10.61791       13.35656
C         -3.66475      -10.75684       10.41223
C         -2.54454      -11.42480        9.94485
C         -1.56757      -11.11046        8.87356
C         -1.12703       -9.87360        8.53984
C          0.01774       -9.67728        7.71322
N          0.96361       -9.50334        7.06193
C         -1.70353       -8.68742        9.08036
N         -2.19076       -7.73285        9.52396
H         -9.61425        0.14145        6.29767
H         -4.75988       -0.93746        6.33979
H         -9.82559       -0.84468        4.02497
H         -4.91237       -1.80112        4.00541
H         -8.69863       -4.69374        0.18646
H         -2.65150       -5.80402       -3.88300
H         -3.35248       -4.18261       -4.00527
H         -4.23937       -5.58704       -4.63412
H          3.23452      -14.30025        3.31518
H          3.55072      -12.81945        2.39594
H          2.47874      -14.07643        1.73521
H         -0.19406      -13.94583        7.31841
H         -2.62921      -14.23742       11.90002
H         -5.91801       -9.74482       11.47718
H         -4.53557      -14.05075       13.54967
H         -3.98510       -9.81677        9.97127
