95

C        -13.85798       -9.42815       -2.44429
C        -14.54578      -10.29861       -1.60110
F        -15.52326      -11.06401       -2.10553
C        -14.21961      -10.38430       -0.25579
F        -14.86492      -11.24501        0.54335
C        -13.21799       -9.58264        0.27819
C        -12.52140       -8.68831       -0.54586
C        -12.82477       -8.62027       -1.94095
C        -12.07364       -7.77617       -2.79268
C        -11.04163       -7.01082       -2.26281
C        -10.79693       -7.08052       -0.88283
C        -11.51066       -7.88550       -0.01319
C         -9.59642       -6.31038       -0.53162
O         -9.27580       -5.95042        0.57940
C         -8.92322       -6.04519       -1.84147
C         -9.98199       -6.15095       -2.86958
C        -10.04863       -5.47902       -4.04379
C         -9.01624       -4.58584       -4.45775
N         -8.16582       -3.87034       -4.79273
C        -11.17990       -5.55651       -4.90412
N        -12.11338       -5.63117       -5.59074
C         -7.59092       -6.04378       -2.00428
C         -6.66863       -6.25380       -0.94703
C         -6.06124       -5.28532       -0.20582
C         -5.03597       -5.80912        0.60039
C         -4.38788       -4.68202        1.18725
C         -4.96330       -3.44202        0.89908
S         -6.34658       -3.49905       -0.17191
C         -4.50644       -2.09771        1.36188
F         -3.30263       -4.76806        1.91030
C         -4.86220       -7.16920        0.60070
S         -6.07381       -7.79400       -0.49949
C         -3.95744       -8.11577        1.32665
C         -3.44222       -9.32840        0.79329
C         -2.64041      -10.26301        1.57418
N         -2.26968      -11.43547        1.02809
C         -2.56749      -11.68505       -0.26193
C         -3.29367      -10.79880       -1.00968
N         -3.72679       -9.62937       -0.49425
F         -3.61546      -11.08708       -2.27801
F         -2.11059      -12.82173       -0.80526
C         -2.22547      -10.01535        2.90012
C         -2.69851       -8.78724        3.46352
C         -3.60502       -7.85326        2.68181
N         -4.03180       -6.82759        3.43726
S         -3.25907       -6.89924        4.88854
N         -2.42304       -8.30736        4.69342
C         -1.39141      -10.92934        3.73075
C         -0.32321      -11.73458        3.38982
C          0.21951      -12.37613        4.51526
C          1.27797      -13.21611        4.09971
C          1.47749      -13.26077        2.72261
S          0.52223      -12.10466        1.81584
C          2.41472      -14.14150        1.96361
F          1.97797      -13.94650        4.92867
C         -0.31234      -12.09832        5.73293
S         -1.76590      -11.20922        5.40138
C          0.02463      -12.53847        7.05096
C         -0.11588      -11.78985        8.15769
C         -0.26122      -12.47544        9.48541
O          0.16229      -13.56506        9.81883
C         -1.15606      -11.59531       10.27383
C         -1.77692      -11.89106       11.47609
C         -2.74688      -10.99670       11.95939
C         -3.09570       -9.84566       11.19188
C         -4.12213       -9.00102       11.63470
C         -4.76818       -9.26337       12.83731
C         -4.40382      -10.35686       13.60975
C         -3.40508      -11.22781       13.17923
F         -5.01579      -10.58810       14.77812
F         -5.74677       -8.44396       13.24507
C         -2.41957       -9.56422        9.98897
C         -1.42136      -10.41971        9.55489
C         -0.53783      -10.40202        8.36760
C         -0.02016       -9.29688        7.77516
C          1.04698       -9.37590        6.83361
N          1.93489       -9.42500        6.08944
C         -0.43618       -7.98411        8.12559
N         -0.79620       -6.91564        8.41742
H        -14.13879       -9.39930       -3.49424
H        -12.98388       -9.67841        1.33531
H        -12.28632       -7.78347       -3.85828
H        -11.23948       -7.91785        1.03903
H         -7.15324       -6.00405       -2.99980
H         -3.80071       -2.18482        2.19349
H         -5.34790       -1.48399        1.70226
H         -4.00488       -1.57278        0.54215
H          2.85845      -14.90138        2.61519
H          3.22434      -13.55148        1.52433
H          1.89022      -14.66828        1.15767
H          0.31567      -13.58410        7.15289
H         -1.53576      -12.81286       11.99933
H         -4.43232       -8.13468       11.05774
H         -3.15451      -12.07864       13.80618
H         -2.70839       -8.69440        9.40477
