101

C          3.45747       -9.68675      -12.71233
C          4.04369       -8.48989      -13.11758
F          4.41383       -8.34210      -14.39682
C          4.23357       -7.45497      -12.21358
F          4.76488       -6.29344      -12.61832
C          3.87451       -7.60980      -10.87944
C          3.31144       -8.81618      -10.43911
C          3.06454       -9.86720      -11.37637
C          2.40678      -11.04802      -10.96298
C          2.02856      -11.18993       -9.63560
C          2.34326      -10.16541       -8.72635
C          2.96330       -8.98326       -9.09584
C          1.70125      -10.41526       -7.42177
O          1.92002       -9.82946       -6.38460
C          0.69238      -11.48175       -7.71790
C          1.16139      -12.17170       -8.92758
C          0.93102      -13.46220       -9.23965
C          0.12420      -14.30963       -8.41990
N         -0.55134      -14.98488       -7.76241
C          1.49875      -14.07423      -10.38534
N          1.96646      -14.55484      -11.34060
C         -0.56417      -11.48270       -7.24489
C         -1.05838      -10.59815       -6.26018
C         -1.61730       -9.33329       -6.32692
O         -1.63353       -8.48442       -7.39090
C         -1.16283       -8.89767       -8.64860
C         -2.32836       -8.98951       -5.10184
O         -3.11525       -7.88175       -4.90970
C         -2.83042       -6.76310       -5.75661
C         -2.23723       -9.99949       -4.13438
S         -1.09655      -11.17994       -4.65995
C         -2.85214      -10.18831       -2.81606
C         -2.97069      -11.35136       -2.05412
C         -3.49997      -11.10147       -0.73446
N         -3.52274      -12.04327        0.25743
C         -3.04119      -13.24736       -0.14009
C         -2.91970      -14.26815        0.92933
O         -2.98695      -13.99275        2.12113
C         -2.70882      -15.66735        0.51684
C         -2.40812      -15.96591       -0.74643
C         -2.23515      -14.91809       -1.77679
O         -1.77203      -15.22834       -2.86582
C         -2.64179      -13.53007       -1.43910
N         -2.58152      -12.60662       -2.45148
C         -4.02940       -9.82977       -0.59584
S         -3.49581       -8.86233       -1.91932
C         -4.84088       -9.31006        0.49893
C         -5.40365       -8.05959        0.72591
O         -5.39699       -7.13518       -0.27137
C         -5.38597       -5.78365        0.15518
C         -5.94579       -7.93421        2.06421
O         -6.55362       -6.80288        2.52333
C         -6.26175       -6.45576        3.87392
C         -5.83256       -9.11643        2.78038
S         -5.38447      -10.37803        1.72528
C         -6.19332       -9.45246        4.11005
C         -5.47620      -10.22412        4.93405
C         -6.22462      -10.74175        6.11636
O         -7.11975      -10.20550        6.73211
C         -5.72303      -12.10722        6.29121
C         -6.35746      -13.08616        7.02634
C         -5.90856      -14.39432        6.86808
C         -4.83615      -14.68223        5.96535
C         -4.45687      -16.01532        5.76955
C         -5.10285      -17.03267        6.46592
C         -6.12589      -16.74257        7.35903
C         -6.53714      -15.43246        7.56195
F         -6.73620      -17.72804        8.03094
F         -4.72844      -18.30268        6.26324
C         -4.19255      -13.64244        5.26471
C         -4.63058      -12.34344        5.44094
C         -4.27369      -11.05822        4.78801
C         -3.05291      -10.68986        4.35066
C         -2.76343       -9.34633        3.96364
N         -2.52628       -8.24338        3.68905
C         -1.92290      -11.57706        4.37108
N         -0.99958      -12.26599        4.42553
H          3.31405      -10.46740      -13.45511
H          4.03267       -6.77655      -10.19934
H          2.15630      -11.79825      -11.71055
H          3.10370       -8.19584       -8.35979
H         -1.32475      -12.12694       -7.68078
H         -1.74638       -9.72934       -9.05046
H         -0.10076       -9.10565       -8.61953
H         -1.26761       -8.05188       -9.33473
H         -3.53896       -5.95818       -5.54042
H         -2.99618       -6.96888       -6.81803
H         -1.81735       -6.38560       -5.57539
H         -2.78759      -16.42579        1.29014
H         -2.23587      -16.98962       -1.06604
H         -6.38754       -5.45851        0.45140
H         -5.08511       -5.17185       -0.70078
H         -4.65504       -5.61837        0.95325
H         -6.60057       -5.42994        4.03940
H         -5.18891       -6.50550        4.08647
H         -6.83030       -7.06578        4.57896
H         -7.18088       -9.11970        4.42896
H         -7.21604      -12.83227        7.64241
H         -3.66564      -16.27903        5.07248
H         -7.35122      -15.23826        8.25517
H         -3.40554      -13.87916        4.55298
