99

C         -2.35327       -9.83233        9.05817
C         -2.84175      -11.12487        9.21176
F         -3.14706      -11.56562       10.43950
C         -3.04398      -11.93834        8.10575
F         -3.58106      -13.15652        8.25526
C         -2.70447      -11.49652        6.83101
C         -2.20101      -10.19989        6.65168
C         -2.07818       -9.33395        7.77803
C         -1.74363       -7.97635        7.60038
C         -1.57596       -7.47323        6.31956
C         -1.51729       -8.38982        5.26501
C         -1.84046       -9.73197        5.38549
C         -1.14983       -7.70447        4.02432
O         -0.63597       -8.22037        3.05399
C         -1.45460       -6.25810        4.27021
C         -1.44766       -6.09173        5.75109
C         -1.42558       -4.93274        6.45637
C         -1.78756       -4.86549        7.82990
N         -2.15833       -4.82675        8.93439
C         -1.08541       -3.69423        5.85509
N         -0.77407       -2.67824        5.37872
C         -2.09947       -5.48221        3.36943
C         -2.72197       -5.93720        2.15010
C         -3.03044       -5.23210        0.99411
O         -2.57132       -3.95477        0.87140
C         -2.17430       -3.60340       -0.45099
C         -3.96212       -5.93329        0.12354
O         -4.49140       -5.33365       -0.98139
C         -5.84224       -5.65496       -1.29722
C         -4.19497       -7.24125        0.54412
S         -3.41019       -7.50093        2.03789
C         -4.97603       -8.37678       -0.01788
C         -5.83306       -9.21799        0.74526
C         -6.58373      -10.30612        0.15751
N         -7.30331      -11.13775        0.95778
C         -7.28406      -10.92541        2.29279
C         -6.60545       -9.87080        2.84617
N         -5.91568       -9.00572        2.07980
F         -6.56867       -9.69772        4.17540
F         -7.92611      -11.79818        3.08071
C         -6.56230      -10.54535       -1.23727
C         -5.72165       -9.72230       -2.03663
C         -4.87741       -8.65682       -1.40931
N         -4.06609       -8.06100       -2.30135
S         -4.42880       -8.66741       -3.79292
N         -5.54669       -9.79874       -3.36751
C         -7.15946      -11.71951       -1.89645
C         -7.97160      -11.85044       -3.01098
O         -8.40296      -10.71375       -3.62732
C         -9.54067      -10.85428       -4.46308
C         -8.13931      -13.23713       -3.40964
O         -8.71518      -13.58100       -4.59661
C         -9.59217      -14.69924       -4.56482
C         -7.49934      -14.12578       -2.54434
S         -6.61374      -13.23299       -1.36041
C         -7.29625      -15.54789       -2.59256
C         -7.14383      -16.33970       -1.51477
C         -6.40029      -17.63755       -1.67868
O         -6.29292      -18.31370       -2.67831
C         -5.72090      -17.85642       -0.37857
C         -4.78706      -18.83296       -0.07031
C         -4.16795      -18.78246        1.19024
C         -4.44433      -17.69289        2.07240
C         -3.77636      -17.60894        3.30191
C         -2.90102      -18.61643        3.68862
C         -2.66720      -19.70212        2.85697
C         -3.27630      -19.78327        1.60667
F         -1.85320      -20.68933        3.25483
F         -2.29722      -18.53549        4.88190
C         -5.39806      -16.72360        1.72334
C         -6.08600      -16.84916        0.52718
C         -7.19953      -16.07738       -0.07015
C         -8.19863      -15.46581        0.61260
C         -9.37911      -15.00578       -0.04332
N        -10.35161      -14.66799       -0.57818
C         -8.17447      -15.31078        2.02763
N         -8.11978      -15.18702        3.18096
H         -2.23009       -9.21484        9.94416
H         -2.87336      -12.16017        5.98746
H         -1.67547       -7.34677        8.48057
H         -1.86476      -10.36632        4.50309
H         -2.38808       -4.46259        3.63851
H         -3.03269       -3.24564       -1.02637
H         -1.66417       -4.42168       -0.97219
H         -1.46472       -2.77155       -0.37462
H         -6.41324       -4.72983       -1.39738
H         -6.35967       -6.27084       -0.55597
H         -5.86981       -6.15063       -2.27247
H         -9.29456      -11.34726       -5.40840
H         -9.88589       -9.84519       -4.71322
H        -10.35822      -11.36305       -3.94291
H        -10.27802      -14.60093       -5.41323
H        -10.19153      -14.73938       -3.65094
H         -9.03919      -15.63024       -4.71747
H         -7.09900      -15.96346       -3.58033
H         -4.54745      -19.60650       -0.79564
H         -3.94231      -16.77717        3.98230
H         -3.05981      -20.64425        0.98007
H         -5.58721      -15.89313        2.39806
