87

C          2.07962       -0.13391        1.15326
O          1.93331        0.37343       -0.17156
C          2.90547        1.26490       -0.50774
C          2.86302        2.60633       -0.10400
C          1.90732        3.32166        0.73321
C          2.22742        4.36774        1.53578
C          3.51529        5.02521        1.82376
C          3.59753        6.42121        1.71129
F          2.50732        7.12991        1.37601
C          4.79289        7.09327        1.94673
F          4.84434        8.42801        1.83228
C          5.92734        6.38169        2.30436
F          7.08516        7.02530        2.51013
C          5.85848        5.00446        2.46187
F          6.95045        4.31966        2.82921
C          4.65653        4.33323        2.24603
F          4.60665        3.00660        2.44032
C          0.44476        3.02870        0.74662
C         -0.37809        3.40166       -0.32256
F          0.13839        4.06391       -1.36839
C         -1.74922        3.14470       -0.29448
F         -2.52728        3.55158       -1.30697
C         -2.31691        2.48870        0.78905
F         -3.62945        2.21836        0.80337
C         -1.52649        2.13731        1.86999
F         -2.06682        1.51750        2.92848
C         -0.16848        2.43900        1.86337
F          0.55445        2.16802        2.96181
S          4.12971        3.46396       -0.92493
C          4.76647        2.07731       -1.68053
C          5.96065        2.22841       -2.51562
N          5.86688        1.74425       -3.76527
C          6.97045        1.90506       -4.48277
N          8.09169        2.48171       -4.06949
C          8.07078        2.91419       -2.80169
C          9.33031        3.48258       -2.28874
S         10.81066        2.86314       -2.91940
C         11.79657        3.93360       -1.99803
C         13.20741        3.96993       -2.31358
C         14.15524        3.61567       -1.41745
C         14.06951        3.06799       -0.05834
C         13.92574        1.69284        0.16657
F         13.73654        0.85658       -0.86568
C         14.06205        1.16236        1.44913
F         13.97105       -0.16138        1.64170
C         14.34298        1.99750        2.52146
F         14.50438        1.48491        3.74954
C         14.49269        3.36070        2.31425
F         14.80775        4.16443        3.33938
C         14.36440        3.88995        1.03375
F         14.59621        5.19757        0.84285
C         13.70591        4.37614       -3.67666
C         14.75416        3.69573       -4.32947
F         15.36706        2.65661       -3.73956
C         15.18817        4.06583       -5.60082
F         16.20813        3.41129       -6.17402
C         14.56563        5.10392       -6.27106
F         14.96992        5.44994       -7.50056
C         13.51626        5.77785       -5.66804
F         12.89714        6.76824       -6.32578
C         13.09505        5.42444       -4.38545
F         12.08446        6.11769       -3.83926
C         11.00634        4.65656       -1.11121
O         11.58967        5.50869       -0.22365
C         10.94217        5.55470        1.04742
C          9.59033        4.47127       -1.35200
O          8.57960        5.11631       -0.70750
C          8.51013        6.50650       -1.03087
N          7.02825        2.82615       -1.98359
C          3.97072        0.97146       -1.44293
O          4.22340       -0.16736       -2.14752
C          3.97046       -1.39634       -1.49191
H          1.59537       -1.11485        1.19502
H          1.55577        0.50319        1.86001
H          3.12241       -0.24084        1.46586
H          1.41808        4.88013        2.06312
H          6.95356        1.52836       -5.50134
H         15.20695        3.69922       -1.69881
H         11.70155        5.78243        1.80136
H         10.47349        4.60320        1.32212
H         10.20912        6.36544        1.08001
H          7.81673        6.97433       -0.32315
H          8.11369        6.65282       -2.03998
H          9.47202        7.01980       -0.93475
H          4.25489       -2.19752       -2.18527
H          2.91251       -1.54457       -1.26867
H          4.59164       -1.50388       -0.59722
