59

C         -1.68510       -4.14123       -3.03302
N         -0.53571       -4.25207       -3.69947
O          0.07277       -3.02464       -3.56238
C         -0.70746       -2.18562       -2.81434
C         -0.13736       -0.87667       -2.62782
O         -0.62527        0.06890       -2.01470
C         -1.85665       -2.86274       -2.44669
C         -3.04159       -2.42934       -1.62718
C         -3.21953       -1.18965       -1.03988
C         -4.45899       -1.12808       -0.34814
C         -5.12026       -2.31427       -0.43368
S         -4.36550       -3.52655       -1.32279
C         -6.32179       -2.38403        0.22982
C         -6.73431       -1.24918        0.85914
S         -5.47437       -0.09842        0.59665
C         -8.00080       -1.44092        1.47311
C         -8.47223       -2.74025        1.26049
S         -7.31905       -3.72401        0.37966
C         -9.73949       -3.36282        1.72910
C        -10.49672       -4.30602        0.99143
C        -11.68788       -4.93181        1.52195
N        -12.32686       -5.86862        0.78527
C        -11.86332       -6.17161       -0.44304
C        -10.74760       -5.56541       -0.95238
N        -10.07708       -4.62909       -0.25317
F        -10.27793       -5.90833       -2.15934
F        -12.53183       -7.08289       -1.16256
C        -12.21504       -4.60535        2.79576
C        -11.49356       -3.63930        3.55722
C        -10.23467       -3.01421        3.01909
N         -9.68469       -2.14658        3.88884
S        -10.64795       -2.09171        5.22594
N        -11.81040       -3.17197        4.77936
C        -13.45896       -5.17979        3.37705
C        -13.74383       -5.47602        4.71419
C        -15.07395       -5.94921        4.86216
C        -15.70793       -6.00153        3.65858
S        -14.82764       -5.48801        2.32743
C        -17.01890       -6.41131        3.67467
C        -17.53652       -6.70156        4.89977
S        -16.24265       -6.47287        6.01919
C        -18.90523       -7.05692        4.79775
C        -19.34128       -6.96349        3.48261
S        -18.06757       -6.55201        2.36536
C        -20.74112       -7.20946        3.00865
C        -21.89265       -7.45813        3.73169
O        -22.91636       -7.69410        2.85954
N        -22.47620       -7.55376        1.56053
C        -21.18187       -7.25388        1.66246
C        -22.26352       -7.49649        5.12026
O        -21.66335       -6.99038        6.06015
H         -2.34037       -5.00403       -3.00521
H          0.84729       -0.74574       -3.10266
H         -2.54290       -0.35155       -1.07124
H         -8.52161       -0.67391        2.03303
H        -13.06096       -5.33427        5.54265
H        -19.49682       -7.33280        5.65481
H        -20.61907       -7.09954        0.75099
H        -23.20643       -8.03164        5.31680
