74

C         10.54861       -4.51805        5.84626
C         10.47955       -5.65562        6.57820
C         11.16792       -5.83556        7.80726
N         11.72904       -5.98279        8.80832
C          9.67337       -6.76353        6.16629
N          9.01429       -7.65932        5.83774
N         11.27012       -3.34838        6.08469
C         12.19357       -3.13584        7.18302
C         11.07951       -2.30382        5.17508
O         11.60258       -1.19957        5.21347
C         10.12434       -2.73316        4.11978
S          9.64189       -4.36551        4.35516
C          9.77767       -1.89595        3.12996
C          8.89855       -2.21883        2.04782
C          7.77741       -3.04989        2.00836
C          7.23381       -3.11863        0.70212
C          7.94015       -2.33565       -0.15734
S          9.21789       -1.46121        0.50088
C          7.53769       -2.37070       -1.47045
C          6.45982       -3.15450       -1.75312
S          5.99127       -3.85092       -0.24544
C          6.15029       -3.11132       -3.13689
C          7.05744       -2.30701       -3.82856
S          8.25443       -1.58544       -2.76828
C          7.14466       -2.03378       -5.29140
C          7.61643       -0.78443       -5.71839
C          7.78756       -0.50815       -7.06505
C          7.48908       -1.46916       -8.03993
C          6.95142       -2.71355       -7.64257
N          6.60809       -3.64488       -8.57156
C          6.09745       -4.81732       -8.15228
C          5.93498       -5.09337       -6.82202
N          6.27574       -4.20416       -5.87032
C          6.77923       -3.00032       -6.25383
C          7.77500       -1.16151       -9.47061
C          7.09590       -1.58852      -10.61324
C          7.77648       -1.18333      -11.79132
C          8.87029       -0.43037      -11.48649
S          9.17415       -0.17696       -9.85478
C          9.63117        0.00047      -12.54755
C          9.21556       -0.40004      -13.78363
S          7.76984       -1.30572      -13.51397
C         10.11402        0.04844      -14.78670
C         11.13047        0.81468      -14.22138
S         11.04295        0.91842      -12.48661
C         12.21106        1.45243      -14.88948
C         12.12327        2.68219      -15.41793
C         10.95933        3.60730      -15.36455
O          9.99014        3.47496      -14.63347
N         11.14378        4.63560      -16.29237
C         12.36804        4.66296      -16.95792
C         12.80029        5.51544      -17.91742
C         12.01585        6.58185      -18.43229
N         11.37020        7.44944      -18.85329
C         14.09830        5.39169      -18.49975
N         15.14876        5.30055      -18.98442
S         13.39642        3.35781      -16.37265
C         10.04546        5.56187      -16.49794
H         12.95400       -3.92170        7.17838
H         11.63930       -3.12477        8.12557
H         12.71482       -2.17854        7.08965
H         10.22789       -0.90246        3.11583
H          7.37403       -3.60021        2.84713
H          5.33629       -3.65730       -3.59639
H          7.87505       -0.00306       -5.00658
H          8.17477        0.47233       -7.33476
H          5.82254       -5.52541       -8.92479
H          5.52489       -6.03493       -6.47684
H          6.20236       -2.19963      -10.60308
H         10.01915       -0.16577      -15.84316
H         13.11577        0.86326      -15.01658
H          9.18390        5.31242      -15.87120
H          9.71315        5.50128      -17.53822
H         10.36466        6.57457      -16.23847
