83

C          4.05336       -2.17126        6.23022
C          3.26925       -3.03331        6.90905
C          2.65928       -2.72035        8.15541
N          2.15872       -2.47028        9.16747
C          2.96698       -4.33639        6.40320
N          2.72202       -5.38969        5.99582
N          4.44856       -0.87475        6.55880
C          4.13527       -0.18445        7.79698
C          5.18959       -0.19072        5.59076
O          5.61061        0.95387        5.67400
C          5.38576       -1.06664        4.40379
S          4.72570       -2.62725        4.68032
C          5.96688       -0.59310        3.29082
C          6.14579       -1.31971        2.07074
C          6.33996       -2.67934        1.82301
C          6.46211       -2.92151        0.45672
C          6.38113       -1.80900       -0.34215
S          6.15074       -0.41559        0.56255
C          6.52351       -2.05582       -1.74379
C          6.70869       -3.37386       -2.11268
Si         6.71457       -4.43803       -0.58845
C          5.31951       -5.64549       -0.44101
C          8.31094       -5.32058       -0.27480
C          6.89782       -3.56764       -3.48512
C          6.87640       -2.34211       -4.14849
S          6.55025       -1.02225       -3.06046
C          7.08819       -2.06150       -5.56694
N          7.60431       -0.87510       -5.87744
C          7.77924       -0.68759       -7.17981
N          7.48992       -1.56955       -8.13674
C          6.99909       -2.71918       -7.69496
N          6.78186       -3.03738       -6.42434
C          8.34095        0.60540       -7.57538
C          8.75172        1.66517       -6.76331
C          9.22165        2.71871       -7.55517
C          9.14469        2.49618       -8.91289
S          8.55258        0.97109       -9.26576
C          9.54445        3.58567       -9.75029
C          9.98123        4.71434       -9.09295
Si         9.89306        4.42538       -7.25492
C         11.54716        4.46943       -6.42099
C          8.75679        5.60288       -6.39562
C         10.30085        5.79071       -9.92569
C         10.05179        5.45827      -11.25317
S          9.53221        3.79896      -11.41542
C         10.21212        6.23852      -12.42955
C          9.24236        6.99064      -12.97408
C          7.86550        7.23202      -12.46173
O          7.47366        6.94240      -11.34168
N          7.10199        7.86169      -13.45149
C          7.77234        8.23886      -14.61387
C          7.29209        8.87899      -15.70720
C          5.93905        9.29329      -15.84368
N          4.83452        9.63339      -15.94703
C          8.13029        9.19909      -16.81895
N          8.79741        9.46879      -17.72951
S          9.46776        7.77839      -14.50123
C          5.69219        8.08101      -13.18095
H          4.47545       -0.78376        8.64650
H          3.05773       -0.00240        7.84665
H          4.64128        0.78375        7.85574
H          6.29963        0.44520        3.29306
H          6.39109       -3.44953        2.58002
H          5.28974       -6.08897        0.55988
H          5.42092       -6.46071       -1.16319
H          4.35400       -5.16041       -0.61495
H          9.16472       -4.64266       -0.37231
H          8.45396       -6.14054       -0.98515
H          8.33828       -5.74492        0.73390
H          7.08415       -4.51166       -3.98469
H          6.75965       -3.46405       -8.44558
H          8.69062        1.64512       -5.68002
H         11.47054        4.17005       -5.37124
H         11.97041        5.47856       -6.44920
H         12.25949        3.79732       -6.90958
H          7.77801        5.63542       -6.88438
H          9.16663        6.61791       -6.41124
H          8.60136        5.32115       -5.35035
H         10.64737        6.76219       -9.59741
H         11.17189        6.14705      -12.93131
H          5.39386        7.64674      -12.22250
H          5.09120        7.59371      -13.95443
H          5.49149        9.15506      -13.13771
