85

C          1.43973       -3.74268        7.73326
N          1.81922       -3.10612        6.48547
C          2.09557       -1.75228        6.31269
C          2.03628       -0.74510        7.21507
C          2.34870        0.60110        6.85676
N          2.59415        1.70066        6.57792
C          1.65291       -0.92919        8.57149
N          1.33919       -1.08675        9.67505
S          2.59035       -1.45269        4.65217
C          2.19122       -3.06813        4.15911
C          2.10775       -3.37653        2.85663
C          1.62195       -4.59422        2.29819
C          0.66375       -5.49992        2.75386
C          0.43643       -6.49777        1.80389
C          1.13888       -6.34473        0.63323
S          2.17715       -5.03219        0.69437
C          0.79592       -7.25332       -0.41471
S          1.28697       -7.35982       -2.01064
C          0.11571       -8.61699       -2.34195
C         -0.02032       -9.11661       -3.70357
N          0.72438       -8.53895       -4.67867
N          0.73384       -8.97100       -6.03131
C         -0.00213      -10.01098       -6.49388
C          0.11437      -10.38106       -7.89396
C         -0.82158      -10.95800       -8.75026
C         -0.28819      -11.06095      -10.03929
C          0.99872      -10.58671      -10.17029
S          1.62370      -10.06277       -8.70965
C          1.52211      -10.55891      -11.49967
S          2.98136      -10.03645      -12.13792
C          2.43595      -10.34096      -13.77738
C          3.31531       -9.98197      -14.84427
C          2.92660       -9.60127      -16.07078
S          1.33245       -9.44775      -16.69352
C          1.89220       -8.87307      -18.25010
C          1.00629       -8.57448      -19.22876
C         -0.40097       -8.73082      -19.03746
N         -1.54570       -8.86094      -18.88979
C          1.38632       -8.09190      -20.50842
N          1.70017       -7.69614      -21.55073
N          3.28370       -8.79606      -18.25565
C          4.09960       -8.33529      -19.36289
C          3.93280       -9.18833      -17.08241
O          5.13954       -9.19566      -16.88743
C          1.16473      -10.91468      -13.77754
C          0.66608      -11.00021      -12.47889
Si        -0.94257      -11.54134      -11.71493
C         -2.42182      -10.56660      -12.24721
C         -1.27613      -13.34275      -11.97504
C         -0.85245      -10.64454       -5.55959
N         -1.68842      -11.67854       -5.78144
S         -2.42728      -12.02875       -4.34635
N         -1.73980      -10.88870       -3.36590
C         -0.86983      -10.17878       -4.11365
C         -0.58308       -8.97059       -1.19105
C         -0.18505       -8.17173       -0.11661
Si        -0.74163       -7.93120        1.64536
C         -2.51630       -7.45904        1.85985
C         -0.35524       -9.36663        2.75039
C          1.93509       -3.91590        5.35388
O          1.84980       -5.13402        5.35227
H          0.49690       -3.31507        8.08540
H          2.23854       -3.61311        8.46791
H          1.27617       -4.81725        7.60584
H          2.38359       -2.61014        2.13202
H          0.14070       -5.41139        3.69734
H         -1.82910      -11.22633       -8.45443
H          4.38191       -9.97509      -14.61713
H          3.94762       -8.99045      -20.22490
H          5.16483       -8.35770      -19.11436
H          3.83860       -7.29984      -19.59869
H          0.62634      -11.21632      -14.66561
H         -3.29718      -10.81578      -11.63944
H         -2.67338      -10.76609      -13.29330
H         -2.24378       -9.49119      -12.14721
H         -0.41203      -13.95342      -11.69553
H         -1.49734      -13.54770      -13.02787
H         -2.13226      -13.68061      -11.38396
H         -1.36413       -9.71882       -1.17564
H         -2.70874       -7.11326        2.88047
H         -3.18229       -8.30428        1.66256
H         -2.79441       -6.64853        1.17877
H          0.68277       -9.69312        2.63363
H         -1.00026      -10.22186        2.52489
H         -0.50612       -9.10528        3.80244
