87

C         14.47675        5.21005      -12.21676
C         14.94792        6.45446      -11.95890
C         15.28959        7.39365      -12.96507
N         15.55698        8.16234      -13.79113
C         15.10377        6.92716      -10.61720
N         15.24036        7.32227       -9.53741
N         14.27691        4.58612      -13.44864
C         14.61269        5.14272      -14.74805
C         13.65956        3.33445      -13.41190
O         13.39202        2.62502      -14.37088
C         13.32719        2.98640      -12.00621
S         13.98707        4.12971      -10.90810
C         12.54787        1.92896      -11.74125
C         12.08351        1.56830      -10.44484
C         12.62814        0.67336       -9.51840
C         11.75258        0.46604       -8.42487
C         10.61699        1.23203       -8.54935
S         10.54985        2.18902       -9.90310
C          9.74818        0.94175       -7.48051
C         10.31199       -0.02261       -6.68151
C         11.64478       -0.34905       -7.20630
C         12.56777       -1.18037       -6.68154
C         13.83250       -1.37485       -7.30382
N         14.86122       -1.53149       -7.81765
C         12.33287       -1.89057       -5.47203
N         12.14044       -2.47296       -4.48664
C          9.42115       -0.40799       -5.64723
C          8.19510        0.27861       -5.72490
S          8.26757        1.48390       -6.98914
C          6.95300        0.13747       -4.91040
C          5.62995        0.33972       -5.39127
C          4.45233        0.15487       -4.57441
N          3.22659        0.37495       -5.11587
C          3.12273        0.80306       -6.40300
C          4.23574        0.98210       -7.17443
N          5.46857        0.72237       -6.67726
C          4.19504        1.46108       -8.52428
N          4.14741        1.85612       -9.61490
C          1.79936        1.03873       -6.89708
N          0.74307        1.22670       -7.33979
C          4.53104       -0.25113       -3.22232
C          5.84805       -0.40284       -2.68035
C          7.06996       -0.22346       -3.54049
N          8.21145       -0.43399       -2.86042
S          7.81358       -0.81508       -1.30746
N          6.17739       -0.68701       -1.40738
C          3.33860       -0.49740       -2.36444
C          2.05851        0.08190       -2.39104
C          1.23920       -0.40179       -1.34253
C          1.92187       -1.30269       -0.56120
S          3.40519       -1.74071       -1.13344
C          1.11747       -1.68608        0.52485
C         -0.10515       -1.07622        0.39842
C         -0.10917       -0.22555       -0.79229
C         -1.11998        0.53065       -1.26376
C         -2.38798        0.58156       -0.61576
N         -3.42834        0.60926       -0.10083
C         -0.97551        1.30678       -2.44535
N         -0.84580        1.94166       -3.40800
C         -0.97535       -1.47899        1.42480
C         -0.32852       -2.27551        2.37695
S          1.30966       -2.61995        1.88206
C         -0.81029       -2.87639        3.57870
C         -1.80768       -2.38446        4.32817
C         -2.51918       -1.09384        4.15668
O         -2.03689       -0.08337        3.66956
N         -3.81996       -1.23669        4.62851
C         -4.06485       -2.35958        5.41551
C         -5.20903       -2.73424        6.03321
C         -6.41468       -1.98734        5.96084
N         -7.39769       -1.37358        5.89551
C         -5.27764       -3.92035        6.82321
N         -5.34253       -4.88214        7.46857
S         -2.58641       -3.31800        5.55938
C         -4.78276       -0.22242        4.24685
H         13.96187        5.99814      -14.95134
H         14.45975        4.41355      -15.55004
H         15.66665        5.43339      -14.76839
H         12.17782        1.32267      -12.56698
H         13.57707        0.17819       -9.68637
H          9.62277       -1.16661       -4.89895
H          1.76549        0.83277       -3.11476
H         -2.01503       -1.19120        1.50603
H         -0.37898       -3.84006        3.84655
H         -4.34904        0.48848        3.53565
H         -5.10524        0.33182        5.13044
H         -5.62589       -0.69908        3.73833
