95

C         -3.68861        0.50863       -4.28161
C         -3.79194        0.74438       -5.61333
C         -3.47884        2.00270       -6.20053
N         -3.22372        3.03015       -6.67823
C         -4.16296       -0.26376       -6.54990
N         -4.47752       -1.08128       -7.31353
C         -3.17761        1.47431       -3.25825
C         -2.82910        0.74889       -2.10753
C         -2.33429        1.31882       -0.94602
C         -2.17541        2.69241       -0.94504
C         -2.50723        3.45866       -2.06761
C         -3.01955        2.85485       -3.22850
F         -1.70560        3.30032        0.15118
C         -3.09059       -0.67664       -2.29824
O         -2.67241       -1.54706       -1.56483
C         -3.88003       -0.78923       -3.57343
C         -4.69217       -1.81442       -3.89049
C         -4.94067       -2.97132       -3.08826
C         -5.01358       -3.13266       -1.70186
C         -5.32099       -4.45371       -1.33703
C         -5.48528       -5.25616       -2.43947
S         -5.29982       -4.48412       -3.89792
C         -5.73352       -6.57162       -2.00001
C         -5.71070       -6.59933       -0.62586
C         -5.49722       -5.24279       -0.12296
C         -5.49184       -4.81107        1.15225
C         -5.72539       -5.70042        2.23805
N         -5.92065       -6.42176        3.12122
C         -5.29420       -3.44198        1.48686
N         -5.14469       -2.32805        1.76884
C         -5.83591       -7.91659       -0.13232
C         -5.92647       -8.85626       -1.16993
S         -6.02053       -8.03256       -2.71382
C         -5.93890      -10.34397       -1.10358
C         -5.39097      -11.20039       -2.09301
C         -5.34554      -12.63335       -1.95527
N         -4.76456      -13.36660       -2.93317
C         -4.29404      -12.75698       -4.05153
C         -4.36894      -11.40425       -4.20207
N         -4.88419      -10.63943       -3.21442
C         -3.94046      -10.71312       -5.37870
N         -3.60081      -10.17164       -6.35009
C         -3.69256      -13.61432       -5.02852
N         -3.18380      -14.28589       -5.82189
C         -5.87481      -13.30500       -0.82995
C         -6.45990      -12.48659        0.18143
C         -6.48765      -10.98585        0.04466
N         -7.08243      -10.39157        1.09487
S         -7.55617      -11.57152        2.14521
N         -7.04401      -12.90398        1.31967
C         -5.91789      -14.78069       -0.65336
C         -5.83552      -15.54103        0.52346
C         -6.14419      -16.89752        0.28808
C         -6.39182      -17.13612       -1.04125
S         -6.24614      -15.81423       -2.02659
C         -6.91840      -18.43475       -1.17685
C         -7.05430      -18.99584        0.07032
C         -6.42708      -18.11299        1.05202
C         -6.08627      -18.39333        2.32251
C         -6.35932      -19.66524        2.89866
N         -6.57796      -20.70714        3.35558
C         -5.34486      -17.46782        3.11160
N         -4.72328      -16.71842        3.73540
C         -7.85293      -20.16095        0.02628
C         -8.29962      -20.41787       -1.27653
S         -7.46497      -19.37875       -2.41867
C         -9.22140      -21.41752       -1.71702
C        -10.05694      -21.30177       -2.76296
C        -10.34537      -20.23660       -3.73398
C        -10.64801      -18.94250       -3.46499
C        -10.97120      -18.00449       -4.48426
N        -11.21676      -17.23900       -5.32444
C        -10.73157      -18.44384       -2.12887
N        -10.81414      -18.02781       -1.04952
C        -10.53173      -20.91529       -5.04200
C        -10.78753      -22.27745       -4.78669
C        -10.60433      -22.57004       -3.35086
O        -10.78087      -23.63440       -2.79852
C        -11.05555      -23.19671       -5.78505
C        -11.02899      -22.72699       -7.09090
C        -10.72443      -21.39088       -7.38319
C        -10.46872      -20.47334       -6.35592
F        -11.27091      -23.57424       -8.09882
H         -2.09684        0.72113       -0.07308
H         -2.36780        4.53658       -2.02568
H         -3.28255        3.50167       -4.05851
H         -5.26966       -1.78603       -4.80975
H         -4.82948       -2.32739       -1.00382
H         -5.80260       -8.19485        0.91404
H         -5.67687      -15.09837        1.49988
H         -8.19044      -20.73443        0.88276
H         -9.18094      -22.36853       -1.18379
H        -11.24862      -24.24059       -5.56763
H        -10.68093      -21.07379       -8.42271
H        -10.20727      -19.45349       -6.62150
