107

C          5.46752       -6.53968       -0.90371
C          5.48356       -6.45721        0.44647
C          6.21935       -7.37079        1.25458
N          6.82628       -8.12497        1.89326
C          4.91112       -5.34981        1.13861
N          4.48403       -4.43505        1.70772
C          6.34737       -7.40049       -1.72587
C          6.68057       -6.68671       -2.88664
C          7.56315       -7.17431       -3.83551
C          8.08250       -8.46989       -3.65785
C          7.64421       -9.25812       -2.56422
C          6.79920       -8.69957       -1.57568
C          7.99781      -10.70375       -2.45471
O          8.99859      -11.21397       -2.91683
O          6.97100      -11.33938       -1.83639
C          7.01189      -12.76966       -1.78579
C          9.03552       -8.93053       -4.62911
N          9.81542       -9.20101       -5.44458
C          5.86026       -5.45594       -2.97680
O          5.89931       -4.62192       -3.85335
C          4.89890       -5.55693       -1.82789
C          3.64874       -5.09747       -2.00126
C          2.54072       -5.63333       -1.28471
C          1.86205       -5.14947       -0.16566
C          0.81372       -6.01626        0.21788
C          0.73865       -7.10711       -0.61332
S          1.82391       -7.11637       -1.86641
C         -0.24163       -7.98866       -0.12096
C         -0.79946       -7.46395        1.01936
C         -0.20358       -6.14441        1.26648
C         -0.54342       -5.22642        2.19315
C         -1.58979       -5.46105        3.12722
N         -2.44832       -5.64481        3.88303
C          0.08049       -3.94919        2.23801
N          0.57524       -2.89993        2.25356
C         -1.71431       -8.37726        1.60509
C         -1.81983       -9.56799        0.86305
S         -0.75905       -9.50103       -0.52872
C         -2.59659      -10.81503        1.13418
C         -2.85590      -11.30880        2.43579
C         -3.58705      -12.54353        2.66692
N         -3.79284      -12.95725        3.93536
C         -3.29718      -12.23677        4.95853
C         -2.61915      -11.06672        4.74102
N         -2.39217      -10.59806        3.49231
F         -2.16433      -10.34927        5.77729
F         -3.48131      -12.70166        6.20189
C         -4.10444      -13.34590        1.61604
C         -3.85597      -12.87994        0.29493
C         -3.10438      -11.59823        0.04943
N         -3.00866      -11.32509       -1.26456
S         -3.70708      -12.55275       -2.10591
N         -4.22093      -13.48528       -0.85024
C         -4.87904      -14.61031        1.79031
C         -5.90168      -15.16453        0.99911
C         -6.38524      -16.38685        1.52817
C         -5.70490      -16.72950        2.67162
S         -4.51465      -15.67681        3.12623
C         -6.21709      -17.93808        3.17691
C         -7.23908      -18.36533        2.35822
C         -7.39021      -17.42044        1.24514
C         -8.23332      -17.49884        0.19643
C         -9.15145      -18.58645        0.05726
N         -9.89054      -19.46595       -0.03807
C         -8.24064      -16.51740       -0.82830
N         -8.25153      -15.71824       -1.67813
C         -7.83360      -19.54511        2.86688
C         -7.20383      -19.96728        4.04408
S         -5.89460      -18.91278        4.48262
C         -7.55803      -21.03206        4.92191
C         -7.08945      -22.28566        4.80746
C         -7.59335      -23.52016        5.44536
C         -7.94778      -23.67708        6.74253
C         -8.30939      -24.94382        7.28783
N         -8.60246      -25.98788        7.70414
C         -7.92161      -22.59458        7.67241
N         -7.91252      -21.69767        8.40989
C         -7.47262      -24.58191        4.40553
C         -6.63645      -24.09567        3.38745
C         -6.17615      -22.73991        3.71104
O         -5.21615      -22.18426        3.22596
C         -6.39310      -24.76806        2.20075
C         -7.01684      -26.00662        2.00437
C         -7.83341      -26.54657        3.02590
C         -8.06038      -25.82577        4.22928
C         -8.46013      -27.88611        2.85995
O         -7.97703      -28.78218        2.19371
O         -9.61607      -27.92081        3.56080
C        -10.35064      -29.14925        3.54077
C         -6.85829      -26.62093        0.71510
N         -6.71848      -27.01625       -0.36676
H          7.81587       -6.57048       -4.70619
H          6.48021       -9.30442       -0.72973
H          7.29941      -13.08767       -0.77978
H          7.68222      -13.20746       -2.52987
H          5.99717      -13.12955       -1.98246
H          3.41725       -4.47199       -2.86308
H          2.15545       -4.23746        0.34138
H         -2.24956       -8.21844        2.53502
H         -6.26303      -14.69073        0.09257
H         -8.68738      -20.05901        2.44275
H         -8.33140      -20.78998        5.64416
H         -5.77893      -24.30611        1.42952
H         -8.71873      -26.25001        4.98296
H        -10.33865      -29.57459        4.54834
H         -9.96230      -29.88439        2.83067
H        -11.38476      -28.91436        3.27514
