90

C         11.38081       -1.81521        6.49966
O         11.06479       -1.60265        5.12337
C         10.23943       -2.52980        4.58399
O          9.74628       -3.48621        5.14793
C         10.07240       -2.21998        3.14060
C         10.07232       -0.85778        2.74060
C          9.98164       -0.53360        1.39769
C          9.92597       -1.57890        0.47323
C          9.88562       -2.92497        0.82948
C          9.95117       -3.25593        2.18767
C          9.96455       -4.65009        2.53752
N          9.99028       -5.79331        2.74427
C         10.02836       -1.07315       -0.89486
O          9.94983       -1.78597       -1.86965
C         10.26902        0.41206       -0.77062
C         10.82889        1.16792       -1.73104
C         11.26202        0.73484       -3.05746
C         12.58192        0.85141       -3.35175
C         13.17644        0.38483       -4.60157
C         12.45915       -0.20664       -5.58427
C         13.19559       -0.70549       -6.75266
C         13.71399       -1.98329       -6.81592
N         14.43760       -2.46303       -7.85486
C         14.65024       -1.62322       -8.88664
C         15.43929       -2.10924      -10.05778
C         15.15091       -1.58029      -11.27414
C         15.82452       -1.95956      -12.51100
C         16.86411       -2.82272      -12.56061
C         17.41055       -3.16523      -13.86340
C         18.65223       -2.98601      -14.33504
C         19.02234       -3.83985      -15.49882
O         18.29510       -4.43504      -16.26718
C         20.48505       -3.87986      -15.51220
C         21.23438       -4.62102      -16.41159
C         22.62200       -4.49402      -16.37433
C         23.38000       -5.27659      -17.30752
N         23.94988       -5.93608      -18.07504
C         23.21044       -3.61124      -15.44206
C         24.65814       -3.27583      -15.47677
O         25.31045       -2.97492      -14.49513
O         25.02657       -3.16060      -16.77235
C         26.26118       -2.48378      -17.00851
C         22.41546       -2.90925      -14.49345
C         21.03020       -3.04467      -14.52103
C         19.88618       -2.37190      -13.81666
C         19.96681       -1.26855      -13.03483
C         18.86765       -0.36915      -12.90001
N         18.03177        0.43739      -12.88826
C         21.17326       -0.84906      -12.41093
N         22.15430       -0.53327      -11.87793
C         17.26931       -3.43408      -11.28719
C         16.52795       -3.10934      -10.03146
C         16.96463       -3.79777       -8.95643
Si        18.38022       -4.95144       -9.36937
C         18.25544       -4.34461      -11.14251
N         14.16791       -0.36053       -8.93322
C         13.45636        0.06608       -7.86425
C         11.01221       -0.31520       -5.38227
C         10.40430        0.18971       -4.12014
C          9.05985        0.09073       -4.06828
Si         8.37111       -0.74656       -5.59912
C         10.13028       -0.83327       -6.26053
C         10.00057        0.76074        0.65000
C          9.68339        1.97693        1.16403
C          9.34708        2.17584        2.53744
N          9.08062        2.32076        3.65990
C          9.59769        3.15063        0.36147
N          9.53521        4.10835       -0.29455
H         12.07751       -1.02936        6.80610
H         11.87133       -2.78392        6.63101
H         10.48021       -1.74292        7.11708
H         10.18041       -0.09490        3.50125
H          9.84427       -3.68963        0.05656
H         11.10778        2.20000       -1.53314
H         13.28262        1.26671       -2.63224
H         14.25447        0.50492       -4.68525
H         13.56974       -2.68731       -6.00014
H         14.37099       -0.83002      -11.38846
H         15.44282       -1.49058      -13.41562
H         16.70500       -3.75195      -14.46008
H         20.73633       -5.26102      -17.13855
H         26.51166       -2.60597      -18.06640
H         27.07725       -2.88966      -16.40419
H         26.11912       -1.41784      -16.80999
H         22.92100       -2.23556      -13.80445
H         16.58027       -3.74873       -7.94931
H         18.89282       -4.75830      -11.90753
H         13.09968        1.09026       -7.93365
H          8.41552        0.37539       -3.25140
H         10.33583       -1.25097       -7.23394
