141

C          5.64882       -6.36763       -1.37425
O          5.00979       -6.88281       -2.26178
C          6.73809       -5.44485       -1.64611
C          7.62014       -5.40720       -0.56171
C          8.71897       -4.56947       -0.65995
C          8.89588       -3.79736       -1.83157
C          7.97059       -3.85643       -2.89452
C          6.87369       -4.70318       -2.80714
Br         8.11327       -2.80955       -4.47110
Br        10.43218       -2.67935       -1.89253
C          7.08189       -6.31727        0.49571
C          7.78531       -6.91494        1.48660
C          9.17834       -6.68561        1.67042
N         10.31469       -6.49637        1.80049
C          7.20310       -7.88400        2.35619
N          6.71502       -8.66351        3.06428
C          5.68358       -6.62598        0.10203
C          4.62033       -6.83275        0.90230
C          3.26395       -6.94196        0.46902
C          2.70816       -7.43918       -0.68606
C          1.29971       -7.21439       -0.83991
C          0.73831       -6.95763        0.41837
S          1.99991       -6.42710        1.49839
C         -0.66292       -7.08483        0.65897
C         -1.23283       -7.07248        2.06300
C         -2.50303       -6.55283        2.38386
C         -3.02765       -6.57017        3.69264
C         -2.27313       -7.05272        4.76036
C         -0.99941       -7.54044        4.48698
C         -0.51835       -7.59005        3.16576
C         -2.79235       -6.99144        6.16714
C         -1.51139       -7.18858       -0.48951
C         -0.92969       -7.15301       -1.75905
C          0.45731       -7.30927       -1.98184
C          1.02616       -7.52206       -3.37827
C          2.26682       -7.00233       -3.78998
C          2.83607       -7.27074       -5.05324
C          2.13962       -8.00198       -6.01229
C          0.87205       -8.46505       -5.67213
C          0.35384       -8.26479       -4.37488
C          2.72924       -8.24692       -7.37148
S         -2.12339       -6.79648       -2.92167
C         -3.45259       -7.12340       -1.90834
C         -2.94355       -7.39672       -0.64587
C         -4.85619       -7.06694       -2.43858
C         -5.22040       -6.76918       -3.78753
C         -6.58798       -6.73450       -4.26211
N         -6.83282       -6.42597       -5.56153
C         -5.79586       -6.19026       -6.39568
C         -4.50805       -6.22072       -5.95101
N         -4.23278       -6.50167       -4.66762
F         -3.48115       -5.97613       -6.77673
F         -6.05847       -5.93318       -7.68316
C         -7.68609       -7.00814       -3.40837
C         -7.37420       -7.29663       -2.04764
C         -5.94814       -7.31435       -1.55481
N         -5.88186       -7.57645       -0.23692
S         -7.40876       -7.81665        0.32394
N         -8.25255       -7.58943       -1.07003
C         -9.11683       -7.00111       -3.81855
C        -10.25144       -6.65251       -3.10591
C        -11.51150       -6.80988       -3.81358
C        -11.24371       -7.02773       -5.17349
S         -9.60671       -7.58919       -5.34099
C        -12.23256       -6.86545       -6.18718
C        -11.88390       -6.92222       -7.66285
C        -12.74442       -7.47818       -8.63362
C        -12.41511       -7.53520      -10.00447
C        -11.18228       -7.07140      -10.46256
C        -10.29796       -6.54111       -9.52711
C        -10.65976       -6.43753       -8.17113
C        -10.77811       -7.20551      -11.90285
C        -13.57990       -6.64182       -5.76615
C        -13.88247       -6.69995       -4.39504
C        -12.87436       -6.70659       -3.38013
C        -13.22147       -6.61175       -1.89730
C        -12.47062       -7.24694       -0.88507
C        -12.80624       -7.16803        0.48662
C        -13.93689       -6.47311        0.91257
C        -14.71207       -5.84811       -0.05837
C        -14.33974       -5.89228       -1.41719
C        -14.34400       -6.42603        2.35766
S        -15.60865       -6.81808       -4.20835
C        -15.93524       -6.24810       -5.77810
C        -14.76788       -6.25701       -6.51231
C        -17.25346       -5.80456       -6.08525
C        -17.83755       -5.85288       -7.28885
C        -18.94377       -4.86529       -7.52494
O        -19.66017       -4.32667       -6.70923
C        -18.90272       -4.58827       -8.97202
C        -17.98815       -5.44865       -9.60888
C        -17.48167       -6.40634       -8.59199
C        -17.04100       -7.67785       -8.82648
C        -16.87773       -8.63013       -7.77939
N        -16.76484       -9.43610       -6.94844
C        -16.82418       -8.17076      -10.14392
N        -16.63870       -8.55175      -11.21857
C        -17.71594       -5.24658      -10.95445
C        -18.38217       -4.21351      -11.64343
C        -19.30951       -3.38105      -10.98278
C        -19.57193       -3.56450       -9.62393
Br       -20.22740       -1.96296      -11.85201
Br       -17.94966       -4.00225      -13.48389
H          9.44160       -4.47812        0.14478
H          6.12982       -4.78146       -3.59607
H          4.75863       -6.83175        1.98220
H          3.29349       -7.89427       -1.46806
H         -3.13288       -6.10392        1.62147
H         -4.03118       -6.18628        3.86618
H         -0.36262       -7.89628        5.29474
H          0.45755       -8.04883        3.03191
H         -3.85368       -7.25900        6.20397
H         -2.66629       -5.98234        6.57285
H         -2.25962       -7.69287        6.81909
H          2.84496       -6.37013       -3.12387
H          3.83481       -6.89683       -5.27152
H          0.27102       -9.00091       -6.40428
H         -0.61559       -8.71335       -4.17491
H          3.74591       -8.64640       -7.28512
H          2.76242       -7.31611       -7.94721
H          2.14265       -8.97639       -7.94136
H         -3.56985       -7.66549        0.19168
H        -10.19860       -6.30615       -2.08168
H        -13.69795       -7.90709       -8.34137
H        -13.12421       -7.96901      -10.70788
H         -9.31004       -6.20368       -9.83726
H         -9.92548       -5.97474       -7.51613
H        -11.65101       -7.19499      -12.56413
H        -10.23302       -8.14259      -12.05736
H        -10.13329       -6.37320      -12.20733
H        -11.59261       -7.83982       -1.13104
H        -12.17367       -7.67069        1.21589
H        -15.61720       -5.31433        0.22717
H        -14.98148       -5.33614       -2.09373
H        -13.53108       -6.74854        3.01692
H        -15.20537       -7.07951        2.53274
H        -14.61314       -5.40461        2.65043
H        -14.73223       -5.95156       -7.55024
H        -17.76638       -5.26252       -5.28695
H        -16.98626       -5.84968      -11.48602
H        -20.25241       -2.91703       -9.07736
