93

C          1.33623       -1.10992       -0.34209
O          0.53297       -1.28517        0.54796
C          1.33037        0.00631       -1.30062
C          2.52449        0.02010       -2.04061
C          2.62435        0.87587       -3.12725
C          1.53576        1.71207       -3.43959
C          0.36285        1.70150       -2.65502
C          0.25729        0.84127       -1.56166
Br        -1.15668        2.76921       -3.05325
Br         1.71484        2.79197       -4.99527
C          3.41343       -1.04876       -1.50933
C          4.76133       -1.11666       -1.60476
C          5.52234       -0.14968       -2.32158
N          6.12769        0.64300       -2.91218
C          5.51744       -2.12012       -0.92898
N          6.12823       -2.93674       -0.37733
C          2.53839       -1.92791       -0.71610
C          2.59352       -3.26421       -0.61275
C          1.49827       -4.09584       -0.09912
C          0.46474       -4.54699       -0.92528
O          0.56138       -4.23542       -2.25991
C         -0.60646       -4.41180       -3.05505
C         -0.56636       -5.31259       -0.36324
C         -0.58827       -5.73106        0.99364
C          0.48354       -5.25630        1.79183
C          1.49519       -4.44121        1.24887
O          0.60595       -5.66576        3.10046
C          0.99889       -4.61836        3.99830
C         -1.72708       -6.60110        1.47905
C         -2.33161       -6.51704        2.76054
C         -3.40120       -7.39216        3.19578
N         -3.80397       -7.37522        4.48848
C         -3.26615       -6.46468        5.32105
C         -2.36984       -5.53479        4.87196
N         -1.92497       -5.54301        3.60114
F         -1.90899       -4.58205        5.69431
F         -3.68318       -6.44898        6.59407
C         -4.13654       -8.21276        2.30537
C         -3.61510       -8.28804        0.98606
C         -2.35715       -7.54551        0.59510
N         -1.96846       -7.86486       -0.65567
S         -3.12823       -8.82263       -1.32666
N         -4.17557       -8.91799       -0.06288
C         -5.49320       -8.74952        2.63922
C         -6.00427      -10.01311        2.29314
O         -5.15560      -10.90949        1.68997
C         -5.74732      -11.71502        0.66954
C         -7.33329      -10.36112        2.62738
C         -8.18731       -9.47777        3.32105
C         -7.69507       -8.20510        3.64654
C         -6.38250       -7.87274        3.30231
O         -8.52883       -7.33524        4.30035
C         -8.13250       -5.97127        4.40179
C         -9.59448       -9.90020        3.54998
C        -10.40521       -9.66340        4.59884
C        -11.87845       -9.91473        4.47929
O        -12.45940      -10.58661        3.65343
C        -12.50437       -9.12017        5.55797
C        -11.52777       -8.41496        6.28092
C        -10.21001       -8.95958        5.86777
C         -9.16261       -9.11253        6.71594
C         -8.25285      -10.18607        6.53922
N         -7.59578      -11.14763        6.46107
C         -8.99450       -8.34312        7.89621
N         -8.85872       -7.68037        8.83913
C        -11.92417       -7.52850        7.27008
C        -13.28233       -7.47270        7.62469
C        -14.23432       -8.27070        6.95702
C        -13.84990       -9.07559        5.88009
Br       -16.05567       -8.35750        7.48891
Br       -13.73338       -6.33264        9.07926
H          3.49742        0.87669       -3.77336
H         -0.64685        0.77429       -0.96279
H          3.40618       -3.84672       -1.03774
H         -0.34524       -4.18037       -4.09198
H         -1.38572       -3.71233       -2.73654
H         -0.97078       -5.44441       -3.04569
H         -1.38261       -5.61609       -1.00678
H          2.30790       -4.08297        1.87390
H          0.61350       -4.85618        4.99369
H          0.59377       -3.63880        3.71210
H          2.09020       -4.57675        4.06929
H         -4.95371      -12.02588       -0.01826
H         -6.49549      -11.16929        0.08227
H         -6.18315      -12.61864        1.10650
H         -7.71029      -11.34572        2.35889
H         -6.01056       -6.88585        3.55453
H         -8.89336       -5.44820        4.98765
H         -8.09166       -5.51572        3.40774
H         -7.18405       -5.85155        4.93671
H        -10.02408      -10.41422        2.68729
H        -11.20979       -6.90962        7.80523
H        -14.56317       -9.68788        5.33568
