75

N          8.71544       -1.73203       -0.88166
C          8.52909       -1.03708        0.02854
C          8.31415       -0.14184        1.11244
C          7.06623       -0.26566        1.79147
N          6.07907       -0.42574        2.37973
C          9.27477        0.69996        1.55785
C          9.15026        1.63523        2.67536
C          8.28468        2.62208        2.95838
C          7.20688        3.06066        2.11844
S          5.82373        3.74871        2.87548
C          5.02108        4.10249        1.39156
C          3.69685        4.71109        1.39203
C          2.69522        4.55866        0.45143
C          1.51590        5.29251        0.76176
C          1.59667        5.95748        1.96948
C          0.53220        6.70986        2.60773
S          0.84236        8.04153        3.63736
C         -0.83460        8.37275        3.91389
C         -1.12364        9.47980        4.77448
C         -2.16823        9.61448        5.60286
C         -2.48592       11.01016        6.05918
O         -1.72929       11.94485        6.20900
C         -3.95536       11.03818        6.18547
C         -4.74350       12.17159        6.28877
C         -6.12557       12.00886        6.16929
Br        -7.18491       13.58267        6.27133
C         -6.67445       10.72867        5.94238
Br        -8.53521       10.44793        5.66471
C         -5.84931        9.58974        5.87314
C         -4.47892        9.74526        6.01922
C         -3.33556        8.79888        5.94667
C         -3.34005        7.50333        6.34033
C         -2.13982        6.74526        6.45830
N         -1.17133        6.11061        6.56890
C         -4.53948        6.81992        6.69640
N         -5.52343        6.27031        6.96216
C         -1.60466        7.50577        3.14951
C         -0.83106        6.50590        2.47547
O         -1.28922        5.42514        1.78135
C         -2.67959        5.42311        1.45813
C         -3.58872        5.78074        2.62083
S         -3.36287        7.54635        2.96855
S          3.16087        5.76765        2.64498
C          5.80786        3.69076        0.32596
C          7.06518        3.13184        0.73830
O          8.06260        2.66867       -0.06760
C          7.95529        3.02144       -1.44936
C          6.60670        2.66738       -2.05095
S          5.39009        3.83001       -1.38994
C         10.46575        1.59481        3.39666
O         10.73642        2.03864        4.49091
C         11.40752        0.97682        2.43546
C         12.77818        0.85502        2.57704
C         13.50010        0.36199        1.48576
Br        15.37220        0.14445        1.72225
C         12.84203        0.05096        0.27599
Br        13.77088       -0.52955       -1.27877
C         11.44494        0.16037        0.16777
C         10.72309        0.57903        1.27360
H          8.46166        3.21394        3.85865
H          2.77375        3.93675       -0.42967
H          0.63419        5.29395        0.13264
H         -0.43846       10.32793        4.69018
H         -4.28556       13.14900        6.41031
H         -6.29317        8.62115        5.66021
H         -2.91274        4.39843        1.14655
H         -2.85143        6.05926        0.58083
H         -3.33473        5.20494        3.51782
H         -4.63774        5.59950        2.37216
H          8.72551        2.43814       -1.96709
H          8.22184        4.07726       -1.58588
H          6.30754        1.64789       -1.78391
H          6.62633        2.75554       -3.14057
H         13.26151        1.14202        3.50654
H         10.95716       -0.07549       -0.77379
