91

C         -4.58636       -1.26106        3.69466
O         -4.69352       -0.94087        2.53142
C         -5.69394       -1.36416        4.65042
C         -5.20779       -1.43690        5.96466
C         -6.11717       -1.66178        6.98987
C         -7.48658       -1.80058        6.67356
C         -7.93790       -1.71557        5.33933
C         -7.02920       -1.48638        4.30952
Br        -9.75335       -1.94906        4.83295
Br        -8.67210       -2.13725        8.12291
C         -3.71834       -1.33276        5.90629
C         -2.89251       -0.91472        6.89189
C         -3.38046       -0.54087        8.18400
N         -3.79418       -0.23759        9.21513
C         -1.48925       -0.72986        6.68094
N         -0.35248       -0.59454        6.51101
C         -3.35790       -1.58243        4.49346
C         -2.29991       -2.24529        3.99558
C         -2.25479       -2.69269        2.64361
C         -1.76753       -2.08404        1.51542
O         -1.16647       -0.86880        1.56965
C         -1.01491       -0.32204        0.25380
C         -0.53251       -1.37197       -0.76221
C          0.84110       -1.94619       -0.41591
O         -1.45810       -2.46878       -0.88319
C         -1.91402       -2.87372        0.33084
C         -2.51419       -4.10901        0.54353
S         -2.86704       -4.23906        2.24289
C         -2.85963       -5.23362       -0.39155
C         -3.25597       -5.06244       -1.74495
C         -3.61373       -6.17292       -2.60582
N         -4.06991       -5.91263       -3.85304
C         -4.14834       -4.64076       -4.30792
C         -3.76670       -3.59680       -3.51748
N         -3.34264       -3.80734       -2.24551
C         -3.81558       -2.23569       -3.95762
N         -3.87168       -1.14590       -4.35434
C         -4.67660       -4.48505       -5.63265
N         -5.10928       -4.35538       -6.70021
C         -3.53356       -7.53178       -2.20540
C         -3.13879       -7.74606       -0.85445
C         -2.82772       -6.58945        0.06786
N         -2.53330       -7.01733        1.30969
S         -2.64463       -8.65400        1.34381
N         -2.96572       -8.92886       -0.24058
C         -3.83617       -8.70389       -3.08623
C         -4.35078       -9.96277       -2.81517
O         -4.74890      -10.36289       -1.58033
C         -4.86233      -11.79434       -1.52709
C         -5.70432      -12.31688       -2.69892
C         -7.12785      -11.75631       -2.68623
O         -5.07701      -12.02109       -3.96344
C         -4.50678      -10.78562       -3.96868
C         -4.03309      -10.21329       -5.12904
S         -3.51799       -8.61161       -4.78970
C         -4.08779      -10.74619       -6.45147
C         -3.23601      -10.52196       -7.46384
C         -3.73023      -10.88601       -8.83311
O         -4.62446      -11.65234       -9.13141
C         -2.97260      -10.04039       -9.76817
C         -1.99489       -9.30677       -9.07410
C         -1.98713       -9.77240       -7.65567
C         -0.91009       -9.75354       -6.83309
C         -0.86372      -10.47478       -5.60212
N         -0.78789      -11.05183       -4.59985
C          0.30784       -9.10249       -7.17948
N          1.29611       -8.56834       -7.46731
C         -1.27395       -8.34370       -9.76562
C         -1.50447       -8.17458      -11.14542
C         -2.46403       -8.95663      -11.82256
C         -3.21936       -9.89953      -11.12365
Br        -2.81149       -8.78435      -13.68214
Br        -0.46554       -6.84479      -12.02363
H         -5.80154       -1.76876        8.02422
H         -7.32978       -1.44436        3.26641
H         -1.49328       -2.59107        4.63481
H         -0.29313        0.49973        0.32046
H         -1.98081        0.10367       -0.04584
H         -0.47513       -0.89666       -1.74890
H          0.83924       -2.44253        0.56083
H          1.60375       -1.16472       -0.39940
H          1.12219       -2.71293       -1.14559
H         -5.32519      -12.05738       -0.57027
H         -3.85525      -12.23473       -1.54148
H         -5.76319      -13.40929       -2.62978
H         -7.14082      -10.66610       -2.79285
H         -7.64126      -12.01342       -1.75487
H         -7.70084      -12.15560       -3.52887
H         -4.97160      -11.35602       -6.65145
H         -0.54453       -7.70716       -9.27200
H         -3.99192      -10.49274      -11.60627
