94

C          0.69574       -1.40774        3.04596
O         -0.39571       -1.73498        2.63413
C          0.98057       -0.82770        4.36467
C          2.27347       -0.27969        4.38878
C          2.76657        0.19740        5.59500
C          1.95328        0.12434        6.74481
C          0.65579       -0.42662        6.68356
C          0.15562       -0.90603        5.47357
Br        -0.46655       -0.60967        8.20480
Br         2.71060        0.76760        8.36706
C          2.87368       -0.45135        3.03370
C          3.87975        0.27075        2.48639
C          4.53622        1.31494        3.19852
N          5.05588        2.16423        3.79326
C          4.29590        0.08572        1.13689
N          4.63182       -0.08573        0.03623
C          2.02260       -1.44302        2.34681
C          2.38130       -2.40595        1.48255
C          1.51456       -3.47652        1.13141
C          0.61521       -3.56265        0.07161
C         -0.00857       -4.82509        0.03767
C          0.38611       -5.61774        1.08955
S          1.52400       -4.93493        2.08779
C         -0.33675       -6.82632        1.03969
C         -1.18886       -6.80171       -0.03889
C         -0.99006       -5.54727       -0.77061
C         -1.53060       -5.16280       -1.93945
C         -2.44951       -5.98676       -2.64041
N         -3.20343       -6.65679       -3.21738
C         -1.18720       -3.92899       -2.55386
N         -0.89494       -2.92181       -3.06119
C         -2.00267       -7.95793       -0.08470
C         -1.75793       -8.81232        1.00030
S         -0.40419       -8.20282        1.95036
C         -2.44143      -10.03482        1.37686
C         -2.48908      -10.33576        2.69164
C         -3.20520      -11.46252        3.22600
C         -3.65277      -12.49065        2.47565
C         -3.33912      -12.45221        0.97744
C         -3.21127      -10.97557        0.43765
N         -2.66480      -10.91977       -0.93616
C         -1.81243      -11.84369       -1.21805
C         -1.42450      -12.93631       -0.26929
N         -2.11077      -13.25856        0.77348
F         -0.30553      -13.62453       -0.52650
F         -1.24941      -11.83057       -2.43246
C         -4.37158      -13.54971        3.15102
C         -4.44474      -14.91418        2.83405
C         -5.21522      -15.63232        3.78100
C         -5.71371      -14.80176        4.75690
S         -5.35530      -13.20256        4.56754
C         -6.40756      -15.56376        5.71591
C         -6.34356      -16.88724        5.35302
C         -5.64178      -17.00357        4.07102
C         -5.49874      -18.10156        3.30331
C         -6.05400      -19.35352        3.68934
N         -6.53129      -20.35654        4.02567
C         -4.84669      -18.04853        2.04159
N         -4.32324      -18.00539        1.00747
C         -6.92097      -17.71253        6.33882
C         -7.45329      -16.96653        7.39650
S         -7.20716      -15.25768        7.13846
C         -8.07113      -17.39356        8.60905
C         -8.82763      -18.49364        8.73815
C         -9.03813      -19.01942       10.12794
O         -8.94692      -18.42131       11.17831
C         -9.28986      -20.46261        9.96288
C         -9.36467      -20.79399        8.59964
C         -9.32543      -19.52629        7.81779
C         -9.91638      -19.32962        6.61310
C        -10.14265      -18.02505        6.08065
N        -10.34770      -16.97188        5.64067
C        -10.45204      -20.39645        5.83459
N        -10.88012      -21.27051        5.20603
C         -9.44822      -22.13260        8.24298
C         -9.51195      -23.10967        9.25502
C         -9.48297      -22.74361       10.61642
C         -9.35830      -21.40103       10.97967
Br        -9.58306      -24.01003       12.02848
Br        -9.62579      -24.92072        8.68436
H          3.77539        0.58968        5.68697
H         -0.82399       -1.36952        5.39458
H          3.39379       -2.48048        1.09798
H          0.44511       -2.73885       -0.60955
H         -2.77227       -8.16558       -0.82004
H         -2.04208       -9.70798        3.45842
H         -3.33447      -11.42337        4.30505
H         -4.15634      -12.94180        0.42996
H         -4.23374      -10.57507        0.37066
H         -3.92020      -15.33523        1.98305
H         -6.94373      -18.79331        6.32204
H         -7.81834      -16.82578        9.50816
H         -9.44950      -22.44978        7.20385
H         -9.29674      -21.08959       12.01880
