87

C          4.68992       -3.26585        0.42752
O          4.51889       -4.17706       -0.35298
C          5.93419       -2.98792        1.16352
C          5.87894       -1.71876        1.76005
C          6.92594       -1.32683        2.58512
C          8.01631       -2.19894        2.77544
C          8.04853       -3.46239        2.15128
C          6.99372       -3.86536        1.33043
Br         9.46717       -4.70121        2.39747
Br         9.41052       -1.58618        3.91606
C          4.58555       -1.08228        1.37627
C          4.31406        0.24478        1.36138
C          5.26010        1.22407        1.77775
N          6.04177        2.01312        2.11323
C          3.09123        0.76430        0.84521
N          2.08702        1.17143        0.43125
C          3.74448       -2.16590        0.81871
C          2.40695       -2.29157        0.84259
C          1.71809       -3.47707        0.46182
C          1.15109       -3.80890       -0.76896
C          0.47404       -5.04662       -0.70271
C          0.55619       -5.60224        0.55471
S          1.40596       -4.70227        1.66185
C         -0.15708       -6.81920        0.56387
C         -0.69595       -7.03184       -0.68504
C         -0.31886       -5.92453       -1.56600
C         -0.62605       -5.75417       -2.86660
C         -1.42038       -6.69514       -3.57704
N         -2.07465       -7.46058       -4.15411
C         -0.17737       -4.62126       -3.59744
N          0.18358       -3.69371       -4.19574
C         -1.44268       -8.22915       -0.73133
C         -1.42905       -8.88476        0.50283
S         -0.49459       -7.99976        1.67916
C         -2.05610      -10.13687        0.90394
N         -2.45631      -10.29602        2.19132
N         -3.08454      -11.48110        2.68763
C         -3.34254      -12.57164        1.92363
C         -2.96199      -12.48786        0.56254
C         -2.29774      -11.22910        0.03572
N         -1.99379      -11.31899       -1.27355
S         -2.49962      -12.80484       -1.79617
N         -3.12779      -13.42181       -0.39485
C         -3.99609      -13.72541        2.52247
C         -3.89145      -15.08163        2.20316
C         -4.76060      -15.85656        2.99486
C         -5.46988      -15.08042        3.88383
S         -5.12445      -13.46108        3.82420
C         -6.39740      -15.89316        4.56651
C         -6.28809      -17.17600        4.08633
C         -5.18852      -17.24907        3.12534
C         -4.65529      -18.34669        2.55147
C         -5.16174      -19.64316        2.85123
N         -5.60645      -20.68021        3.12814
C         -3.54118      -18.26959        1.67690
N         -2.62694      -18.20204        0.96257
C         -7.32076      -17.99512        4.57804
C         -8.11444      -17.32170        5.51440
S         -7.59457      -15.66525        5.69305
C         -9.27703      -17.75046        6.22493
C         -9.52455      -19.02552        6.55654
C        -10.95427      -19.42210        6.78428
O        -11.87872      -18.71808        7.13782
C        -11.02966      -20.83257        6.35496
C         -9.74724      -21.31388        6.04050
C         -8.76274      -20.27045        6.42041
C         -7.48082      -20.48039        6.81366
C         -6.69591      -19.46002        7.43298
N         -6.04714      -18.64518        7.94236
C         -6.85064      -21.75345        6.71644
N         -6.34739      -22.79484        6.63257
C         -9.62280      -22.55499        5.43429
C        -10.78096      -23.31981        5.20538
C        -12.05291      -22.83754        5.58080
C        -12.18474      -21.56889        6.15413
Br       -13.65025      -23.83019        5.31337
Br       -10.53282      -25.00047        4.34995
H          6.91991       -0.37552        3.10942
H          6.97514       -4.84225        0.85514
H          1.77329       -1.51079        1.25194
H          1.23065       -3.16270       -1.63449
H         -1.97702       -8.61604       -1.59155
H         -3.24242      -15.45172        1.41782
H         -7.51737      -19.00919        4.25675
H        -10.05868      -17.00611        6.38167
H         -8.65911      -22.93608        5.10680
H        -13.15535      -21.15224        6.40955
