95

C          0.30841       -1.08122        2.32781
O          0.37649       -1.97394        3.14580
C         -0.33453        0.22478        2.52670
C         -0.00808        1.09752        1.47850
C         -0.62676        2.34139        1.43697
C         -1.53402        2.69489        2.45595
C         -1.82152        1.80249        3.50824
C         -1.21132        0.54839        3.54897
Br        -3.05993        2.19959        4.89224
Br        -2.35197        4.40709        2.31485
C          0.94682        0.39737        0.56924
C          1.82299        1.00119       -0.26943
C          1.90557        2.42298       -0.41093
N          1.97059        3.57171       -0.50802
C          2.79903        0.26485       -1.00040
N          3.58955       -0.34392       -1.59140
C          0.89154       -1.04001        0.94349
C          1.11905       -2.15563        0.22555
C          0.85244       -3.52257        0.63525
C         -0.31225       -4.06237        1.00927
C         -1.70385       -3.69311        1.25288
O         -2.19593       -2.59147        1.10394
N         -2.27141       -4.91019        1.69430
C         -3.64014       -4.94545        2.12784
C         -1.33519       -5.96628        1.71550
C         -0.15312       -5.46753        1.30736
C          1.27561       -5.77376        1.06750
O          1.81070       -6.85738        1.19219
N          1.82187       -4.52161        0.67990
C          3.24070       -4.30758        0.51298
C         -1.62700       -7.35467        2.16919
C         -2.12592       -8.40939        1.37781
C         -2.40095       -9.75277        1.90620
N         -3.00861      -10.64807        1.10401
C         -3.22213      -10.34837       -0.20562
C         -2.85985       -9.13087       -0.72003
N         -2.35066       -8.14629        0.07119
C         -2.94310       -8.84590       -2.12118
N         -3.00295       -8.66681       -3.26685
C         -3.79489      -11.39685       -0.99805
N         -4.25161      -12.24968       -1.64596
C         -2.04823      -10.18618        3.21094
C         -1.47459       -9.14627        4.01006
C         -1.32903       -7.71257        3.50934
N         -0.90310       -6.87260        4.46817
S         -0.63224       -7.77440        5.82679
N         -0.94870       -9.28439        5.23757
C         -2.17908      -11.57856        3.79385
C         -2.42664      -11.90708        5.08583
C         -2.71255      -11.39700        6.45821
O         -3.05280      -10.27327        6.77352
N         -2.54515      -12.53927        7.27738
C         -2.57978      -12.47594        8.71863
C         -2.34554      -13.68733        6.52659
C         -2.30345      -13.34076        5.24006
C         -2.08639      -13.93607        3.93447
O         -2.04057      -15.12277        3.68261
N         -1.96736      -12.80506        3.09833
C         -1.68398      -13.03867        1.70880
C         -2.15683      -14.99945        7.09389
C         -2.89450      -16.09905        6.87101
C         -2.31539      -17.44178        7.21997
O         -1.42356      -17.68868        8.00364
C         -3.01326      -18.40918        6.34886
C         -4.00714      -17.75802        5.59998
C         -4.11346      -16.35673        6.09475
C         -5.24730      -15.61544        6.09012
C         -5.40849      -14.45890        6.90590
N         -5.58700      -13.54024        7.59169
C         -6.42277      -16.01056        5.39166
N         -7.38068      -16.33529        4.82223
C         -4.67623      -18.46955        4.61358
C         -4.39009      -19.83549        4.43878
C         -3.43094      -20.48056        5.24572
C         -2.71894      -19.75667        6.20673
Br        -3.02929      -22.33056        5.08569
Br        -5.35596      -20.73712        3.07014
H         -0.45645        3.04217        0.62464
H         -1.43307       -0.17668        4.32671
H          1.47118       -2.08421       -0.80189
H         -4.07838       -3.94181        2.06937
H         -3.69110       -5.27830        3.16694
H         -4.20958       -5.60886        1.47453
H          3.79388       -5.01756        1.13451
H          3.51572       -3.29369        0.82214
H          3.51085       -4.45992       -0.53490
H         -3.05536      -11.54937        9.04892
H         -1.54922      -12.49179        9.08857
H         -3.12470      -13.32954        9.13218
H         -1.21562      -14.02092        1.57809
H         -1.00046      -12.28569        1.31514
H         -2.62816      -13.07600        1.15984
H         -1.24485      -15.09833        7.68673
H         -5.40506      -17.99568        3.96307
H         -1.94952      -20.21948        6.81835
