93

C          4.41625       -2.70871       -0.02204
O          4.15949       -3.59272       -0.81033
C          4.73428       -1.32330       -0.36894
C          5.32918       -0.67802        0.72603
C          5.59050        0.67944        0.62870
C          5.25575        1.35794       -0.56234
C          4.65793        0.67523       -1.64435
C          4.39513       -0.68942       -1.55173
Br         4.12685        1.54117       -3.24890
Br         5.61520        3.22403       -0.60794
C          5.44726       -1.67130        1.83349
C          6.33342       -1.64241        2.86066
C          7.27130       -0.58205        3.02048
N          8.03200        0.28861        3.12909
C          6.45072       -2.71311        3.79232
N          6.52194       -3.59606        4.54997
C          4.53629       -2.77456        1.47068
C          3.75890       -3.51412        2.28087
C          2.67898       -4.33511        1.83239
C          1.81333       -4.19805        0.74030
C          0.91210       -5.27146        0.64234
C          1.05990       -6.13943        1.69533
S          2.23340       -5.72573        2.79232
C          0.13583       -7.18881        1.54234
C         -0.60385       -6.97941        0.40307
C         -0.13860       -5.75559       -0.25235
C         -0.54370       -5.22052       -1.42049
C         -1.56756       -5.82152       -2.20237
N         -2.41009       -6.30373       -2.83925
C          0.03229       -4.02376       -1.93927
N          0.48442       -3.03995       -2.35088
C         -1.56078       -8.00125        0.22114
C         -1.48750       -8.97498        1.23061
S         -0.19898       -8.59149        2.34692
C         -2.28474      -10.21856        1.41075
C         -2.61005      -10.81019        2.65848
C         -3.37500      -12.03434        2.76128
N         -3.56158      -12.59736        3.97722
C         -3.08462      -11.97686        5.07429
C         -2.40864      -10.79166        4.98275
N         -2.18177      -10.20526        3.79050
F         -1.93708      -10.18977        6.08306
F         -3.29742      -12.54990        6.26654
C         -3.93880      -12.67922        1.63123
C         -3.61003      -12.12758        0.36009
C         -2.75689      -10.89391        0.24783
N         -2.51758      -10.55736       -1.03287
S         -3.31252      -11.63132       -1.99822
N         -3.99490      -12.58901       -0.84337
C         -4.83219      -13.86863        1.68441
C         -4.99770      -14.91672        0.76618
C         -5.92694      -15.87441        1.22576
C         -6.42389      -15.54144        2.46300
S         -5.93354      -14.07001        3.03243
C         -7.18576      -16.61807        2.95890
C         -7.16356      -17.63169        2.03087
C         -6.47467      -17.16821        0.82750
C         -6.46093      -17.74414       -0.39071
C         -7.14672      -18.96601       -0.63108
N         -7.72659      -19.96125       -0.79061
C         -5.83994      -17.11460       -1.50560
N         -5.34102      -16.59980       -2.41588
C         -7.69048      -18.82497        2.56163
C         -8.15557      -18.64544        3.86996
S         -7.95170      -16.98795        4.38347
C         -8.64988      -19.58924        4.81937
C         -9.31521      -20.70951        4.50440
C         -9.34970      -21.81265        5.52051
O         -9.22467      -21.73036        6.72344
C         -9.45974      -23.05518        4.73070
C         -9.61575      -22.75211        3.36683
C         -9.79624      -21.28192        3.24346
C        -10.52082      -20.64791        2.28879
C        -10.92472      -19.28436        2.42340
N        -11.27302      -18.18352        2.52857
C        -11.01682      -21.31685        1.13692
N        -11.41592      -21.87864        0.20134
C         -9.55779      -23.78056        2.43893
C         -9.41044      -25.10313        2.89536
C         -9.31732      -25.38643        4.27438
C         -9.32786      -24.34796        5.20915
Br        -9.14645      -27.15206        4.95362
Br        -9.32701      -26.45703        1.56227
H          6.00940        1.24332        1.45949
H          3.89963       -1.24132       -2.34671
H          3.87441       -3.44592        3.35966
H          1.87576       -3.38023        0.03588
H         -2.26721       -8.05584       -0.59868
H         -4.43765      -14.98599       -0.15909
H         -7.67483      -19.78662        2.06564
H         -8.35071      -19.43296        5.85809
H         -9.60272      -23.58837        1.37036
H         -9.21539      -24.53110        6.27419
