95

C         -3.10269       -0.49261        1.35373
O         -4.11816       -0.99885        0.92998
C         -2.94849        0.17446        2.65504
C         -1.83441        1.02841        2.62885
C         -1.45631        1.66639        3.80164
C         -2.20546        1.43870        4.97400
C         -3.32264        0.57590        4.96620
C         -3.70866       -0.06172        3.78676
Br        -4.33599        0.17902        6.52298
Br        -1.61324        2.32464        6.55006
C         -1.24405        0.95967        1.26164
C         -0.52095        1.92154        0.64331
C         -0.17081        3.14065        1.29040
N          0.10648        4.12724        1.83399
C         -0.13600        1.81263       -0.72442
N          0.18182        1.70394       -1.83463
C         -1.79296       -0.27633        0.65563
C         -1.13080       -1.16328       -0.11020
C         -1.50302       -2.52039       -0.38911
C         -1.17396       -3.27214       -1.52829
C         -1.53019       -4.63470       -1.38775
C         -2.06973       -4.87750       -0.14675
S         -2.23784       -3.54563        0.82083
C         -2.30960       -6.25866       -0.00908
C         -1.96922       -6.89083       -1.18003
C         -1.44357       -5.90134       -2.12642
C         -0.96643       -6.11167       -3.36898
C         -0.94152       -7.41198       -3.95213
N         -0.93004       -8.46904       -4.42722
C         -0.44764       -5.05111       -4.15692
N         -0.01051       -4.18288       -4.79417
C         -2.21063       -8.27974       -1.09799
C         -2.62689       -8.66713        0.18557
S         -2.76756       -7.26750        1.22199
C         -2.86572      -10.03054        0.73134
C         -3.80310      -10.36038        1.74488
C         -3.91775      -11.69175        2.28791
N         -4.73225      -11.90563        3.34921
C         -5.52568      -10.90532        3.81338
C         -5.50253       -9.67345        3.21935
N         -4.63764       -9.39851        2.20774
C         -6.40685       -8.62372        3.58143
N         -7.17207       -7.80269        3.87798
C         -6.37853      -11.23497        4.91008
N         -7.07680      -11.48398        5.80961
C         -3.22766      -12.79814        1.73838
C         -2.29326      -12.51410        0.70190
C         -2.08636      -11.10801        0.21492
N         -1.11999      -11.03262       -0.71819
S         -0.59327      -12.56378       -1.03015
N         -1.53212      -13.40091        0.03596
C         -3.47815      -14.21987        2.08853
C         -2.60123      -15.31365        2.09654
C         -3.28484      -16.52940        2.31700
C         -4.61981      -16.31815        2.56531
S         -5.11165      -14.74450        2.43862
C         -5.23362      -17.55142        2.85796
C         -4.28845      -18.54702        2.78998
C         -3.01885      -17.96857        2.34646
C         -1.91702      -18.61549        1.91910
C         -1.87900      -20.03441        1.83411
N         -1.86684      -21.19108        1.74002
C         -0.77722      -17.91457        1.43740
N          0.15240      -17.34278        1.04241
C         -4.81791      -19.78720        3.20696
C         -6.15754      -19.66897        3.60109
S         -6.76282      -18.06976        3.22925
C         -6.99517      -20.69834        4.13022
C         -8.00571      -20.55482        5.00242
C         -8.93646      -21.72253        5.16472
O         -8.73268      -22.88560        4.88915
C        -10.20166      -21.15319        5.66197
C        -10.06484      -19.77239        5.87935
C         -8.62151      -19.43000        5.72319
C         -7.98463      -18.44888        6.40702
C         -6.56961      -18.43453        6.55975
N         -5.41998      -18.43710        6.71167
C         -8.67740      -17.42597        7.11536
N         -9.25676      -16.59208        7.67653
C        -11.19304      -19.03614        6.21239
C        -12.41672      -19.70540        6.40486
C        -12.50835      -21.10349        6.24769
C        -11.39038      -21.83936        5.84969
Br       -14.11185      -22.07402        6.55431
Br       -13.90817      -18.62986        6.89154
H         -0.58069        2.30798        3.84846
H         -4.54470       -0.75458        3.74928
H         -0.14075       -0.90434       -0.47883
H         -0.66264       -2.83253       -2.37755
H         -2.04893       -8.99043       -1.89963
H         -1.54008      -15.21749        1.89787
H         -4.27050      -20.71994        3.28696
H         -6.79373      -21.69848        3.74096
H        -11.15895      -17.95670        6.32878
H        -11.43555      -22.91298        5.68880
