93

C         -1.89615       -0.17748        2.59670
O         -2.92916       -0.58840        2.11600
C         -1.09064        0.93622        2.08644
C         -0.24002        1.41308        3.09586
C          0.66886        2.41123        2.77918
C          0.70558        2.90678        1.45943
C         -0.15648        2.39513        0.46522
C         -1.07653        1.39652        0.78195
Br        -0.10766        2.96947       -1.34434
Br         1.98696        4.26474        1.09537
C         -0.48914        0.60114        4.32224
C         -0.29379        0.98812        5.60336
C          0.23352        2.26913        5.93264
N          0.65449        3.32203        6.17770
C         -0.70148        0.18037        6.70407
N         -1.02763       -0.49276        7.59036
C         -1.20981       -0.60271        3.85851
C         -1.09642       -1.87349        4.28187
C         -1.58269       -3.01106        3.56060
C         -1.68839       -3.24062        2.18269
C         -2.11209       -4.55051        1.89368
C         -2.25137       -5.29022        3.04331
S         -2.04254       -4.44055        4.45415
C         -2.53170       -6.62457        2.68763
C         -2.61617       -6.71775        1.31697
C         -2.37892       -5.39607        0.73122
C         -2.41386       -5.03845       -0.56842
C         -2.69956       -5.98250       -1.59309
N         -2.92722       -6.76238       -2.42167
C         -2.16859       -3.69885       -0.98274
N         -1.94905       -2.61099       -1.32241
C         -2.89126       -8.04144        0.90858
C         -2.95939       -8.91316        2.00256
S         -2.67190       -8.06511        3.49328
C         -3.19029      -10.35100        1.97285
C         -3.80236      -11.20031        2.91143
C         -4.41318      -10.71087        4.10948
N         -4.93894      -10.27522        5.04654
C         -3.82312      -12.53105        2.43178
C         -3.31630      -12.64996        1.18448
S         -2.68663      -11.24386        0.55960
S         -3.45549      -14.18479        0.50933
C         -4.20156      -14.70346        1.92541
C         -4.30271      -13.76355        2.89166
C         -4.82587      -14.27323        4.10317
C         -4.86308      -13.61601        5.37435
N         -4.84601      -13.14218        6.43235
C         -5.23230      -15.60744        3.93520
S         -4.83074      -16.18563        2.33794
C         -5.88462      -16.52530        4.85672
C         -5.75814      -17.91837        4.89165
C         -6.58304      -18.48486        5.88287
C         -7.26574      -17.51970        6.58951
S         -7.02015      -15.96985        6.05376
C         -7.98046      -18.13881        7.63757
C         -7.74412      -19.49211        7.58895
C         -6.91941      -19.79943        6.42249
C         -6.63149      -21.01365        5.91059
C         -7.14804      -22.19725        6.50485
N         -7.60310      -23.13125        7.02166
C         -5.86480      -21.16015        4.72421
N         -5.23275      -21.27177        3.75232
C         -8.27993      -20.15402        8.71188
C         -8.99968      -19.27930        9.53214
S         -8.92585      -17.64514        8.90980
C         -9.66020      -19.49903       10.77943
C        -10.19998      -20.66231       11.17136
C        -10.42879      -20.85819       12.64243
O        -10.55437      -20.01467       13.50193
C        -10.36201      -22.31893       12.84887
C        -10.22410      -22.98157       11.61903
C        -10.38537      -21.97177       10.53872
C        -10.91143      -22.21066        9.31280
C        -11.39977      -21.15597        8.48398
N        -11.82617      -20.30975        7.81393
C        -11.12894      -23.52483        8.81131
N        -11.30062      -24.59970        8.41234
C         -9.98169      -24.34760       11.61471
C         -9.95355      -25.04022       12.83957
C        -10.15673      -24.35770       14.06047
C        -10.34808      -22.97363       14.06564
Br       -10.17323      -25.24241       15.74070
Br        -9.62268      -26.91058       12.75246
H          1.37237        2.79787        3.51108
H         -1.73357        0.95459        0.03711
H         -0.50818       -2.10272        5.16910
H         -1.43753       -2.49348        1.44155
H         -3.02713       -8.37028       -0.11538
H         -5.09777      -18.46735        4.23064
H         -8.13064      -21.19877        8.95017
H         -9.62106      -18.67756       11.49702
H         -9.80145      -24.89418       10.69321
H        -10.46669      -22.41782       14.99524
