95

C          1.62982       -2.24380       -1.98079
O          1.16321       -2.38159       -0.87155
C          1.47920       -1.06920       -2.84332
C          2.47322       -1.07007       -3.83466
C          2.43141       -0.08858       -4.81345
C          1.39200        0.86448       -4.77901
C          0.39786        0.82291       -3.77706
C          0.44385       -0.15463       -2.78486
Br        -1.07498        2.02044       -3.72612
Br         1.38837        2.17189       -6.16078
C          3.32331       -2.27909       -3.62490
C          4.61311       -2.43655       -3.99837
C          5.32732       -1.41889       -4.69460
N          5.89229       -0.57234       -5.25112
C          5.36838       -3.58729       -3.63047
N          5.97006       -4.53351       -3.33390
C          2.53134       -3.16334       -2.74269
C          2.39219       -4.50012       -2.78390
C          1.32538       -5.21991       -2.15002
C         -0.00886       -4.85897       -1.91379
C         -0.74885       -5.90360       -1.32651
C          0.00981       -7.04262       -1.21706
S          1.60004       -6.87603       -1.66543
C         -0.81627       -8.09012       -0.76297
C         -2.08857       -7.60946       -0.54775
C         -2.11154       -6.17609       -0.86366
C         -3.13060       -5.30183       -0.73864
C         -4.40587       -5.70814       -0.25742
N         -5.44957       -6.03868        0.12673
C         -2.98263       -3.92673       -1.07636
N         -2.86628       -2.80612       -1.36410
C         -2.96072       -8.63946       -0.11787
C         -2.30598       -9.88142       -0.05760
S         -0.63075       -9.71843       -0.53545
C         -2.88296      -11.24857        0.29628
C         -1.78991      -12.14279        0.94824
N         -3.87372      -11.08287        1.26922
N         -5.16992      -11.77960        1.31892
C         -5.69494      -12.58346        0.31821
C         -4.82528      -12.53178       -0.84377
C         -3.50811      -11.88053       -0.85843
N         -3.00451      -12.01671       -2.09856
O         -3.95131      -12.68936       -2.83675
N         -5.06185      -12.99627       -2.08390
C         -7.14678      -12.10758       -0.00823
C         -5.92678      -14.02166        0.81068
C         -5.88746      -15.23329        0.10422
C         -6.22971      -16.32944        0.92621
C         -6.51779      -15.93131        2.21301
S         -6.36965      -14.30123        2.48695
C         -6.84089      -17.07017        2.98452
C         -6.73108      -18.18520        2.18698
C         -6.38458      -17.77953        0.82548
C         -6.29404      -18.56632       -0.26861
C         -6.55681      -19.96219       -0.19015
N         -6.79109      -21.09516       -0.07470
C         -5.97254      -18.03983       -1.54796
N         -5.70718      -17.60829       -2.59193
C         -6.91931      -19.37023        2.92474
C         -7.30812      -19.10543        4.24138
S         -7.27839      -17.38528        4.55705
C         -7.62705      -20.00023        5.30912
C         -8.16779      -21.21778        5.14702
C         -8.03087      -22.20692        6.26978
O         -7.84236      -21.98372        7.44582
C         -8.06577      -23.53308        5.61922
C         -8.31541      -23.39648        4.24515
C         -8.64989      -21.97216        3.98390
C         -9.50196      -21.52921        3.02648
C        -10.06779      -20.22028        3.06075
N        -10.55275      -19.16594        3.08410
C         -9.97968      -22.36346        1.97850
N        -10.35914      -23.04667        1.12036
C         -8.21439      -24.51228        3.42655
C         -7.94465      -25.76343        4.01057
C         -7.76759      -25.88689        5.40390
C         -7.80692      -24.75446        6.22408
Br        -7.45335      -27.55558        6.25691
Br        -7.83062      -27.24612        2.82491
H          3.15386       -0.05617       -5.62422
H         -0.32181       -0.24256       -2.01808
H          3.04009       -5.09580       -3.42406
H         -0.41260       -3.89041       -2.17797
H         -4.01179       -8.53008        0.12618
H         -1.27876      -11.60412        1.75444
H         -1.02914      -12.42481        0.21038
H         -2.23158      -13.06529        1.33990
H         -7.12777      -11.09461       -0.42284
H         -7.76126      -12.10290        0.90049
H         -7.63704      -12.79072       -0.71236
H         -5.64000      -15.29499       -0.94856
H         -6.79001      -20.37420        2.54343
H         -7.31433      -19.69637        6.30972
H         -8.32566      -24.44126        2.34848
H         -7.63588      -24.81437        7.29324
