86

C          1.21682       -0.62261       -0.91242
O          1.89163       -1.61655       -0.75606
C          1.52664        0.72040       -0.40579
C          0.71212        1.67301       -1.03853
C          0.74279        2.98171       -0.58217
C          1.60049        3.31173        0.48620
C          2.42161        2.33408        1.08845
C          2.39029        1.01532        0.63465
Br         3.56118        2.70550        2.56168
Br         1.55278        5.11576        1.08746
C         -0.12146        0.96557       -2.05084
C         -0.65623        1.49443       -3.17514
C         -0.52585        2.87457       -3.49882
N         -0.40932        4.00221       -3.74484
C         -1.30990        0.68689       -4.15080
N         -1.84671        0.01756       -4.93131
C         -0.06575       -0.46104       -1.67594
C         -1.05607       -1.36831       -1.73330
C         -1.04302       -2.61097       -1.02987
C         -0.54826       -2.92098        0.24158
C         -0.74476       -4.27406        0.56351
C         -1.44804       -4.92516       -0.42189
S         -1.83764       -3.99295       -1.73876
C         -1.67670       -6.25162       -0.00773
C         -1.11075       -6.43836        1.23397
C         -0.45338       -5.20298        1.65462
C          0.27740       -4.98295        2.76336
C          0.50593       -6.00040        3.72467
N          0.69773       -6.82843        4.51085
C          0.87888       -3.71604        3.02108
N          1.35474       -2.67834        3.23885
C         -1.36415       -7.73317        1.72711
C         -2.11629       -8.47842        0.81565
S         -2.47018       -7.57007       -0.62264
C         -2.64811       -9.83066        0.97717
C         -2.84545      -10.72421       -0.06988
N         -3.36425      -11.96400        0.10820
C         -3.68550      -12.29440        1.38279
C         -3.48639      -11.40126        2.42887
N         -2.95981      -10.16335        2.25481
C         -4.23481      -13.63527        1.58951
C         -5.15453      -14.08356        2.54356
C         -5.39652      -15.46721        2.40625
C         -4.64174      -16.00442        1.39091
S         -3.69264      -14.93120        0.56236
C         -4.92779      -17.37525        1.28760
C         -5.90281      -17.70709        2.19592
C         -6.19651      -16.53201        3.01820
C         -6.94107      -16.47347        4.13862
C         -7.55958      -17.63503        4.67543
N         -8.04132      -18.59567        5.11424
C         -7.07475      -15.26734        4.87821
N         -7.16266      -14.27564        5.47500
C         -6.33543      -19.04182        2.01820
C         -5.63692      -19.67006        0.97972
S         -4.32470      -18.64534        0.42358
C         -5.80645      -20.98876        0.45228
C         -5.59111      -21.33295       -0.82876
C         -5.33087      -22.77772       -1.14089
O         -5.68698      -23.75390       -0.51740
C         -4.44022      -22.75928       -2.32188
C         -4.26133      -21.44140       -2.77563
C         -5.20277      -20.57314       -2.02542
C         -5.77774      -19.43613       -2.48905
C         -6.89568      -18.82969       -1.83935
N         -7.81148      -18.33836       -1.32254
C         -5.34653      -18.79444       -3.68424
N         -4.96976      -18.27301       -4.64849
C         -3.30857      -21.18514       -3.75021
C         -2.61287      -22.26465       -4.32200
C         -2.86700      -23.58833       -3.90573
C         -3.77825      -23.84187       -2.87586
Br        -2.00392      -25.09262       -4.68031
Br        -1.33051      -21.83578       -5.65961
H          0.09350        3.74701       -0.99781
H          2.97609        0.22800        1.10224
H         -1.98534       -1.13623       -2.24861
H         -0.06106       -2.19212        0.87614
H         -1.06258       -8.13653        2.68770
H         -2.58702      -10.48246       -1.09522
H         -3.73225      -11.65486        3.45420
H         -5.61366      -13.42377        3.26991
H         -7.14045      -19.52959        2.55662
H         -6.04441      -21.76824        1.17713
H         -3.07630      -20.17298       -4.06974
H         -3.96043      -24.84612       -2.50392
