101

C         -9.77285       -3.63446        8.30694
O        -10.33934       -4.19880        7.39768
C        -10.36426       -3.35617        9.61294
C         -9.60985       -2.39348       10.29966
C         -9.99188       -2.06308       11.58913
C        -11.11780       -2.69482       12.15835
C        -11.84610       -3.66707       11.44116
C        -11.46834       -4.00318       10.14402
Br       -13.33173       -4.60173       12.16617
Br       -11.58046       -2.18444       13.93105
C         -8.46676       -1.99800        9.42164
C         -7.74785       -0.85617        9.48448
C         -7.97299        0.13180       10.49886
N         -8.16640        0.91647       11.32364
C         -6.76021       -0.50570        8.51919
N         -5.95182       -0.23616        7.73085
C         -8.40385       -3.02280        8.35807
C         -7.31879       -3.49779        7.72802
C         -7.29816       -4.65746        6.89762
C         -8.03151       -5.84584        6.95498
C         -7.69615       -6.72564        5.90892
C         -6.66542       -6.21850        5.15282
S         -6.11551       -4.72491        5.61301
C         -6.30315       -7.17010        4.18116
C         -7.10084       -8.28813        4.30274
C         -8.13921       -8.11323        5.41961
C         -9.56597       -8.08284        4.86571
C         -7.98443       -9.17463        6.50835
C         -6.70751       -9.30279        3.39882
C         -5.59182       -8.90824        2.66291
S         -5.14540       -7.25685        3.00975
C         -4.84235       -9.66835        1.69240
C         -5.24923      -10.70434        0.87892
C         -4.23679      -11.07905       -0.08812
N         -4.43597      -12.01857       -1.05663
C         -5.68687      -12.56674       -0.98933
C         -5.98882      -13.58756       -2.02215
O         -5.19758      -13.90331       -2.90159
C         -7.30782      -14.24749       -1.97738
C         -8.21509      -13.94576       -1.04864
C         -7.95838      -12.92591       -0.01450
O         -8.81739      -12.70162        0.82943
C         -6.65241      -12.22429       -0.03802
N         -6.48913      -11.27036        0.92994
C         -3.07282      -10.35391        0.05939
S         -3.17062       -9.34666        1.44009
C         -1.90692      -10.26031       -0.78038
C         -0.59031       -9.99070       -0.39581
C          0.21103       -9.68497       -1.52118
C         -0.52600       -9.76418       -2.68455
S         -2.09092      -10.26896       -2.50347
C          0.26226       -9.34450       -3.77276
C          1.52623       -9.02803       -3.32499
C          1.63585       -9.17079       -1.79246
C          2.71496      -10.16460       -1.36416
C          1.85329       -7.80132       -1.13504
C          2.36360       -8.67870       -4.40623
C          1.65903       -8.64591       -5.61609
S         -0.00500       -9.09580       -5.38928
C          2.09631       -8.37562       -6.94666
C          3.08911       -7.52677       -7.24123
C          3.82185       -7.72250       -8.53400
O          3.41320       -8.20368       -9.56802
C          5.21192       -7.31533       -8.23528
C          5.29520       -6.78294       -6.93414
C          3.91487       -6.64887       -6.41212
C          3.46843       -5.71527       -5.53902
C          2.07602       -5.44746       -5.36209
N          0.95426       -5.18863       -5.23116
C          4.35274       -4.87847       -4.80426
N          5.09516       -4.23102       -4.19115
C          6.53941       -6.53112       -6.38346
C          7.68383       -6.74831       -7.16977
C          7.57293       -7.21811       -8.49671
C          6.32033       -7.52127       -9.03639
Br         9.07975       -7.49725       -9.61687
Br         9.35870       -6.40094       -6.33934
H         -9.43599       -1.34553       12.18736
H        -11.98613       -4.76292        9.56628
H         -6.34759       -3.03164        7.87841
H         -8.78811       -6.06335        7.69668
H         -9.68486       -7.31662        4.08963
H        -10.29236       -7.86083        5.65605
H         -9.83727       -9.04560        4.41772
H         -6.96121       -9.20319        6.90193
H         -8.21492      -10.17368        6.12127
H         -8.65496       -8.97615        7.35217
H         -7.17429      -10.27789        3.31910
H         -7.49570      -14.99456       -2.74133
H         -9.18209      -14.43607       -1.01110
H         -0.26138       -9.92379        0.63387
H          2.57338      -11.14885       -1.82485
H          2.71112      -10.30853       -0.27687
H          3.71386       -9.81088       -1.64700
H          1.07744       -7.08554       -1.43455
H          2.82032       -7.37125       -1.41951
H          1.82214       -7.87543       -0.04184
H          3.42054       -8.47139       -4.30930
H          1.66933       -8.99274       -7.73831
H          6.65065       -6.19470       -5.35645
H          6.20545       -7.93157      -10.03623
