97

C          4.71342       -1.23961       -0.60416
O          4.97860       -2.10448       -1.40841
C          4.73259        0.20514       -0.87044
C          5.16816        0.88398        0.28157
C          5.19738        2.26793        0.26959
C          4.77180        2.94232       -0.89206
C          4.32073        2.23110       -2.02692
C          4.31562        0.83580       -2.02699
Br         3.64353        3.08799       -3.58191
Br         4.80648        4.84362       -0.82805
C          5.41285       -0.13986        1.33475
C          6.26948       -0.06314        2.37964
C          7.02164        1.11176        2.65124
N          7.62406        2.08243        2.85968
C          6.53812       -1.18848        3.21267
N          6.76393       -2.10456        3.89009
C          4.66707       -1.33583        0.88226
C          3.81133       -2.02850        1.65058
C          2.66752       -2.94125        1.40243
C          1.84934       -3.09911        0.25738
O          2.25085       -2.51118       -0.92442
C          2.44863       -3.50200       -1.95412
C          0.58898       -3.79794        0.25741
O         -0.19032       -3.62706       -0.87675
C         -1.47737       -3.07294       -0.59712
C          0.15039       -4.65071        1.29642
C          0.96234       -4.56512        2.47243
C          2.18124       -3.66155        2.54219
N          2.71106       -3.62081        3.78049
S          1.84969       -4.65436        4.73096
N          0.78034       -5.24789        3.62126
C         -0.97162       -5.61123        1.20146
C         -1.92360       -5.81034        2.20516
C         -2.78178       -6.96260        2.24687
N         -3.20517       -7.32486        3.47557
C         -2.98575       -6.52287        4.55562
C         -2.47197       -5.27131        4.39245
N         -1.95357       -4.90152        3.20242
C         -2.46829       -4.27865        5.42218
N         -2.51521       -3.46678        6.25076
C         -3.34635       -7.05074        5.83762
N         -3.61422       -7.44810        6.89483
C         -3.12370       -7.72081        1.08428
C         -2.10595       -7.60808        0.07800
C         -1.02703       -6.55138        0.13927
N         -0.17102       -6.62314       -0.89430
S         -0.67266       -7.84967       -1.87250
N         -1.92999       -8.42582       -0.97704
C         -4.32973       -8.61143        0.84928
C         -5.18720       -9.25590        1.78787
O         -5.21714       -8.81906        3.10121
C         -5.98464       -7.60754        3.21730
C         -6.15766      -10.29000        1.48251
O         -6.78581      -10.96034        2.52241
C         -5.84026      -11.71051        3.29832
C         -6.59070      -10.61838        0.17802
C         -5.97426       -9.80589       -0.81571
C         -4.87212       -8.78989       -0.47578
N         -4.56838       -8.03846       -1.55277
S         -5.35763       -8.64768       -2.85905
N         -6.28085       -9.79553       -2.12747
C         -7.77437      -11.47269       -0.12811
C         -8.09825      -12.15988       -1.23960
C         -9.56098      -12.37883       -1.54583
O        -10.48369      -12.51394       -0.77192
C         -9.65624      -12.25552       -3.02112
C         -8.36887      -12.19635       -3.57928
C         -7.38611      -12.42393       -2.48940
C         -6.14468      -12.94448       -2.60217
C         -5.38250      -13.30002       -1.44748
N         -4.76899      -13.59148       -0.50468
C         -5.55378      -13.22810       -3.85612
N         -5.08095      -13.44134       -4.90477
C         -8.22119      -11.83215       -4.91040
C         -9.37014      -11.54670       -5.66955
C        -10.65705      -11.66105       -5.10253
C        -10.80771      -12.02572       -3.75951
Br       -12.24316      -11.25942       -6.07032
Br        -9.08054      -10.92670       -7.44532
H          5.50106        2.83998        1.14128
H          3.95378        0.25504       -2.86973
H          3.88942       -1.80674        2.71910
H          2.07853       -4.50379       -1.70726
H          3.51213       -3.61737       -2.16912
H          1.95620       -3.15167       -2.86461
H         -2.23960       -3.81338       -0.85882
H         -1.62287       -2.19606       -1.23439
H         -1.61422       -2.76113        0.44509
H         -5.85910       -6.93441        2.35951
H         -5.63606       -7.06664        4.10181
H         -7.04209       -7.82424        3.37778
H         -6.40002      -12.38169        3.95666
H         -5.23645      -11.06180        3.93951
H         -5.18978      -12.32348        2.66305
H         -8.54636      -11.38778        0.64406
H         -7.23974      -11.69805       -5.35579
H        -11.78405      -12.06473       -3.28448
