42

C          1.48324       -0.36589        0.39613
C          1.89822       -0.10162        1.64081
C          2.65641        1.06523        1.96477
C          3.09837        2.08788        1.14427
C          3.84908        3.06339        1.86063
S          4.68273        4.51955        1.42604
C          5.12841        4.81369        3.06616
C          5.91404        5.98734        3.44781
S          6.97680        5.88849        4.80014
C          7.50021        7.52272        4.68324
C          8.48452        8.04101        5.63445
C          8.68183        7.63435        6.94762
C          9.75631        8.34420        7.57393
S         10.51016        8.32042        9.14715
C         11.63651        9.54512        8.66975
C         12.62193        9.96980        9.61027
C         13.16536       11.19499        9.56916
C         11.42530        9.95707        7.36483
C         10.34748        9.25092        6.75031
S          9.62059        9.25695        5.17157
C          6.86877        8.12571        3.60454
N          7.07287        9.50548        3.25053
O          6.58626       10.34828        4.01669
O          7.66004        9.72344        2.18989
C          5.95469        7.25920        2.87778
C          5.14077        7.72723        1.70083
C          4.68157        3.80126        3.90167
C          3.94723        2.80099        3.19013
S          3.13968        1.31528        3.60991
H          0.90975       -1.26638        0.19096
H          1.68668        0.27816       -0.45111
H          1.65100       -0.80456        2.43420
H          2.91237        2.14473        0.08046
H          8.10386        6.87037        7.45164
H         12.93713        9.27829       10.38802
H         12.87651       11.94227        8.83800
H         13.91219       11.48592       10.30105
H         12.02092       10.70529        6.85938
H          5.37252        8.75319        1.40497
H          4.07334        7.69333        1.94151
H          5.33555        7.11596        0.81622
H          4.85631        3.76264        4.96976
