140

C          2.33569        1.26080       -0.27991
F          2.66361        1.90791        0.84937
C          2.06178        1.97767       -1.43788
C          2.16269        3.44776       -1.48652
O          2.44593        4.05352       -2.50466
O          1.88513        4.07588       -0.32487
C          1.71344        1.27276       -2.58529
F          1.41822        1.91252       -3.72544
C          1.62271       -0.12181       -2.56472
F          1.30180       -0.74221       -3.71006
C          1.86139       -0.86042       -1.39487
C          2.24259       -0.13344       -0.25887
F          2.50354       -0.76442        0.89678
C          1.69887       -2.32506       -1.33667
C          2.42483       -3.26595       -0.64151
C          1.99275       -4.64876       -0.78467
C          2.44772       -5.87966       -0.19430
C          3.49360       -5.84929        0.93227
C          4.11657       -4.79781        1.60855
C          5.04357       -5.17485        2.63799
C          5.08970       -6.53060        2.80533
S          4.12556       -7.29499        1.66043
C          5.82534       -7.34617        3.80883
C          1.86516       -7.10878       -0.66721
C          0.88825       -7.15381       -1.67691
C          0.41602       -5.92576       -2.20801
C          0.94545       -4.69915       -1.72707
S          0.40379       -3.08903       -2.10399
C         -0.65744       -5.95861       -3.25923
C         -1.75764       -6.80037       -3.39721
C         -2.56812       -6.52209       -4.54318
C         -2.11255       -5.42915       -5.24124
S         -0.61110       -4.90109       -4.63143
C         -2.72958       -4.73781       -6.41100
C          0.53133       -8.53485       -1.99584
C          1.13258       -9.49878       -1.21686
S          2.16641       -8.72750       -0.14809
C          0.95872      -10.96977       -1.15279
C          1.97113      -11.90307       -0.79956
C          1.70870      -13.32061       -0.70186
N          2.73519      -14.13923       -0.36761
C          3.95951      -13.64171       -0.11482
C          4.20108      -12.30324       -0.20266
N          3.22509      -11.44194       -0.55612
F          5.42204      -11.81439        0.05563
F          4.93651      -14.49720        0.22017
C          0.41782      -13.88857       -0.94798
C         -0.60406      -12.97011       -1.32991
C         -0.33308      -11.49843       -1.42593
N         -1.43009      -10.79825       -1.77229
S         -2.66436      -11.86175       -1.99388
N         -1.87981      -13.26037       -1.64229
C          0.07025      -15.33893       -0.85235
C         -1.10497      -16.03517       -1.06392
C         -1.02527      -17.48575       -0.95888
C         -2.01314      -18.49745       -1.08053
C         -3.46132      -18.09844       -1.22892
C         -4.05336      -17.03936       -1.91318
C         -5.48078      -16.98021       -1.79516
C         -5.98016      -18.01909       -1.04726
S         -4.71830      -18.95171       -0.38913
C         -7.40172      -18.35667       -0.73848
C         -1.61290      -19.86165       -1.04340
C         -0.26397      -20.25037       -0.88804
C          0.73563      -19.23463       -0.73484
C          0.29813      -17.87395       -0.70965
S          1.17208      -16.46542       -0.26325
C          2.21641      -19.61384       -0.59854
C          2.87262      -20.84490       -0.56555
C          4.28952      -20.79808       -0.36961
C          4.73615      -19.51366       -0.24004
S          3.48925      -18.42615       -0.55387
C          6.10380      -19.01724        0.06259
C         -0.18531      -21.69460       -0.90081
C         -1.37448      -22.36660       -1.02258
S         -2.62390      -21.26305       -1.23013
C         -1.61347      -23.81559       -0.99271
C         -2.77193      -24.32654       -0.36445
C         -2.93509      -25.69037       -0.16008
C         -1.93367      -26.53856       -0.60590
C         -0.85582      -26.07193       -1.37857
C         -0.65875      -24.70915       -1.52783
S          0.16770      -27.43572       -1.93960
C         -0.93102      -28.55612       -1.07067
C         -0.98167      -29.86490       -1.40549
C         -1.97861      -30.80749       -0.90227
C         -2.15099      -31.21752        0.36432
C         -1.41348      -30.92824        1.58948
C         -0.12160      -31.23996        1.86232
C          0.45964      -30.99693        3.13627
N          0.93359      -30.77160        4.18177
C          0.66641      -31.94373        0.90740
N          1.29815      -32.56774        0.15747
C         -2.43140      -30.57764        2.60312
C         -3.62823      -31.19620        2.20835
C         -3.50296      -31.71246        0.81301
O         -4.32376      -32.31074        0.18725
C         -4.75525      -31.18926        3.00478
C         -4.69717      -30.46176        4.19627
C         -3.54718      -29.72939        4.53872
C         -2.40121      -29.78482        3.74134
N         -1.80144      -27.91046       -0.16667
C         -1.26764      -27.71202        1.20398
H          1.73443        3.51837        0.46371
H          3.26551       -2.93648       -0.06006
H          3.94811       -3.75273        1.44050
H          5.60518       -4.47323        3.24204
H          6.71718       -6.82247        4.16328
H          6.14520       -8.30813        3.39207
H          5.17881       -7.55010        4.66970
H         -1.99819       -7.59947       -2.70742
H         -3.45977       -7.07675       -4.81232
H         -3.57206       -5.31147       -6.81195
H         -2.00284       -4.60146       -7.21793
H         -3.10987       -3.75165       -6.11921
H         -0.18297       -8.80314       -2.76071
H         -2.02107      -15.53001       -1.30837
H         -3.50815      -16.30634       -2.49167
H         -6.10164      -16.21730       -2.25153
H         -8.01061      -17.44949       -0.66799
H         -7.49138      -18.88770        0.21528
H         -7.83089      -18.99371       -1.52053
H          2.41954      -21.80882       -0.65541
H          4.92442      -21.67249       -0.30261
H          6.57858      -19.64912        0.82001
H          6.08835      -17.99377        0.45461
H          6.71942      -19.02982       -0.84120
H          0.70304      -22.27981       -0.78677
H         -3.53676      -23.65948        0.02831
H         -3.79650      -26.07591        0.37485
H          0.23721      -24.34608       -2.02196
H         -0.35610      -30.24039       -2.21492
H         -2.72272      -31.09163       -1.65105
H         -5.65324      -31.71847        2.70458
H         -5.56097      -30.43850        4.85698
H         -3.54515      -29.11978        5.44176
H         -1.53221      -29.19382        4.01851
H         -0.84863      -28.62994        1.59053
H         -2.05221      -27.37864        1.89122
H         -0.42381      -27.00847        1.24659
