104

C          3.17068       -1.06471       -5.35839
F          2.93615        0.25176       -5.24425
C          3.57788       -1.59384       -6.57716
C          3.80293       -0.74719       -7.76303
O          4.58580       -1.04791       -8.64646
O          3.04996        0.37113       -7.81483
C          3.80526       -2.96199       -6.65875
F          4.18060       -3.53607       -7.81021
C          3.61387       -3.78145       -5.54480
F          3.88353       -5.08745       -5.69227
C          3.16805       -3.27117       -4.31243
C          2.96939       -1.88694       -4.24548
F          2.55186       -1.31339       -3.10667
C          2.90255       -4.13789       -3.14452
C          3.01525       -3.86799       -1.77256
C          2.69088       -5.00228       -0.99015
C          2.36121       -6.07165       -1.78807
S          2.30342       -5.75403       -3.40843
C          2.13741       -7.20144       -0.98357
C          2.27939       -6.85130        0.33677
C          2.63048       -5.42615        0.41455
C          2.84252       -4.67989        1.51833
C          2.73522       -5.23114        2.82345
N          2.63900       -5.67922        3.89138
C          3.16700       -3.29867        1.42867
N          3.43835       -2.17113        1.35075
C          2.06291       -7.96558        1.18082
C          1.79253       -9.13259        0.44806
S          1.85936       -8.80675       -1.26530
C          1.54778      -10.52120        0.91570
C          0.63616      -11.43201        0.32590
C          0.49495      -12.80231        0.78153
N         -0.35733      -13.63864        0.14614
C         -1.07182      -13.16265       -0.89614
C         -0.95608      -11.86177       -1.31461
N         -0.12274      -10.99581       -0.70347
F         -1.66735      -11.41751       -2.35971
F         -1.91081      -14.00150       -1.51851
C          1.22595      -13.31527        1.87551
C          2.10136      -12.40316        2.54124
C          2.28579      -10.99775        2.03444
N          3.20730      -10.31480        2.73843
S          3.73448      -11.29292        3.95686
N          2.83050      -12.63505        3.64792
C          1.12886      -14.72732        2.33101
C          0.01940      -15.58686        2.38301
C          0.36822      -16.87186        2.86473
C          1.70755      -16.93728        3.16385
S          2.57958      -15.57896        2.80523
C          2.00707      -18.21467        3.66974
C          0.86696      -18.98201        3.66490
C         -0.24584      -18.17439        3.15459
C         -1.53164      -18.54642        2.99411
C         -1.97537      -19.85593        3.32798
N         -2.33287      -20.92537        3.60741
C         -2.51193      -17.64481        2.49669
N         -3.31644      -16.90900        2.10181
C          1.12953      -20.28989        4.13633
C          2.47033      -20.43927        4.50860
S          3.35708      -18.95682        4.27283
C          3.16936      -21.62226        5.04780
C          2.48175      -22.57197        5.83177
C          3.12087      -23.72222        6.33071
C          4.45930      -23.94324        6.03691
C          5.14172      -22.98453        5.26668
C          4.52584      -21.84460        4.77495
S          6.83841      -23.43991        4.97387
C          6.49853      -25.01652        5.74423
C          7.37061      -26.03815        5.62966
C          8.63710      -26.06596        4.92201
C          8.88170      -25.81545        3.62537
C          8.04649      -25.40787        2.48258
C          6.80807      -25.85837        2.16626
C          6.08721      -25.40010        1.02616
N          5.49427      -25.01891        0.10384
C          6.17261      -26.91090        2.88876
N          5.66048      -27.80517        3.42457
C          8.92609      -24.59124        1.59478
C         10.25864      -24.79582        1.99527
C         10.31097      -25.60566        3.22354
O         11.31179      -25.96925        3.80565
C         11.34749      -24.24828        1.33481
C         11.09140      -23.44157        0.22971
C          9.77015      -23.18357       -0.16581
C          8.68287      -23.74916        0.51792
N          5.23553      -25.07750        6.34873
C          4.85758      -25.90502        7.48131
H          2.49786        0.57868       -7.03522
H          3.34371       -2.90679       -1.39073
H          2.11409       -7.95519        2.26284
H         -0.97322      -15.27524        2.07889
H          0.41527      -21.10178        4.20139
H          1.42667      -22.43278        6.06106
H          2.54063      -24.43899        6.90222
H          5.10647      -21.15947        4.16513
H          7.12754      -26.98935        6.09911
H          9.48147      -26.29368        5.57646
H         12.36071      -24.43669        1.67607
H         11.91713      -22.99613       -0.32125
H          9.58539      -22.53317       -1.01986
H          7.68340      -23.49787        0.17912
H          5.49214      -26.79137        7.57614
H          3.82795      -26.26604        7.39324
H          4.95201      -25.33674        8.41449
