113

C          4.57776        2.89639       -3.20640
C          3.63828        1.94813       -2.98410
C          3.21114        1.03545       -3.98821
N          2.86246        0.29255       -4.80941
C          3.16414        1.65121       -1.66944
N          2.81896        1.30816       -0.61801
C          5.47530        2.95096       -4.38435
C          6.70341        3.48979       -3.96578
C          7.79883        3.60215       -4.80530
C          7.65661        3.17835       -6.13541
C          6.40285        2.67485       -6.59048
C          5.31524        2.57084       -5.70668
C          6.26468        2.27894       -7.92775
C          7.34061        2.36589       -8.81014
C          8.56893        2.84682       -8.36542
C          8.72674        3.25207       -7.03827
C          6.60461        3.96674       -2.56801
O          7.48905        4.46125       -1.90156
C          5.15880        3.79277       -2.20631
C          4.60553        4.66104       -1.34562
C          3.21333        5.04571       -1.31014
C          2.51880        5.63123       -2.31516
C          1.23761        6.25956       -1.94867
O          0.47765        6.91368       -2.89113
C          1.07784        7.05392       -4.18080
C          2.59213        7.09396       -4.09943
O          3.05171        5.84325       -3.57036
C          0.94754        6.25052       -0.62979
Si         2.26866        5.27616        0.31304
C          1.63733        3.68303        1.01242
C          3.11997        6.29298        1.58696
C         -0.09504        6.98323        0.00005
C         -0.57189        8.26349       -0.22850
C         -1.72342        8.60002        0.57977
N         -2.39434        9.78440        0.48175
C         -1.87396       10.58446       -0.49751
C         -2.57676       11.87429       -0.70293
O         -3.44566       12.29059        0.05263
C         -2.21211       12.67703       -1.88536
C         -1.21069       12.32290       -2.69075
C         -0.39485       11.11887       -2.43651
O          0.54167       10.86691       -3.18556
C         -0.78052       10.24832       -1.29861
N         -0.04961        9.10314       -1.16985
C         -2.14168        7.56115        1.38876
S         -1.01227        6.26008        1.26317
C         -3.33665        7.37074        2.13495
C         -3.49234        6.63754        3.26239
C         -4.88079        6.23323        3.55297
O         -5.14843        5.33126        4.56009
C         -4.15901        5.42334        5.58676
C         -2.79593        5.16224        4.97397
O         -2.44800        6.18232        4.03560
C         -5.81240        6.65824        2.67644
Si        -5.02681        7.82639        1.41858
C         -5.50563        9.57521        1.83433
C         -5.35165        7.39689       -0.33596
C         -7.17963        6.24611        2.53173
C         -8.14481        6.32638        3.45686
C         -9.48700        5.71102        3.44309
C        -10.28430        5.51083        2.36564
C        -11.60152        4.98440        2.47268
N        -12.67337        4.54847        2.55626
C         -9.88740        5.87203        1.04316
N         -9.55803        6.16226       -0.03082
C         -9.85185        5.50751        4.87425
C         -8.95212        6.23500        5.66705
C         -7.93116        6.88066        4.83446
O         -7.13468        7.71202        5.21663
C         -8.99388        6.26507        7.05006
C         -9.97246        5.50266        7.69097
C        -10.88874        4.73256        6.91900
C        -10.81828        4.74106        5.50935
C        -11.85023        3.95912        7.58483
C        -11.91029        3.93912        8.97949
C        -11.01181        4.69267        9.72964
C        -10.04831        5.47142        9.08972
H          8.72930        4.02205       -4.43371
H          4.36527        2.19903       -6.07807
H          5.31508        1.89368       -8.29579
H          7.21846        2.05409       -9.84457
H          9.40722        2.90906       -9.05441
H          9.69670        3.62528       -6.71629
H          5.26512        5.29370       -0.74697
H          0.74498        6.20883       -4.79349
H          0.69617        7.97578       -4.63199
H          2.95129        7.91612       -3.46579
H          3.02845        7.21897       -5.09517
H          1.02018        3.13999        0.28934
H          1.03133        3.83775        1.90902
H          2.47214        3.03891        1.30535
H          2.42135        6.59433        2.37404
H          3.53920        7.20356        1.14978
H          3.93411        5.73737        2.06005
H         -2.80322       13.56984       -2.06079
H         -0.94577       12.90763       -3.56513
H         -4.21509        6.41153        6.06118
H         -4.38919        4.66693        6.34296
H         -2.77186        4.19583        4.45665
H         -2.02543        5.15388        5.75136
H         -5.33821        9.78747        2.89504
H         -6.56257        9.75352        1.61722
H         -4.92307       10.29530        1.25535
H         -4.88481        6.44870       -0.61895
H         -4.97549        8.16846       -1.01481
H         -6.42659        7.29951       -0.52228
H         -7.36395        5.74953        1.58213
H         -8.26009        6.84553        7.60219
H        -11.51102        4.11856        4.95203
H        -12.56379        3.35955        7.02268
H        -12.66009        3.33200        9.48051
H        -11.05868        4.67319       10.81548
H         -9.35238        6.04966        9.69439
