125

C          6.84150        9.72758        2.39431
C          6.40560       10.99244        2.21582
C          5.49460       11.60178        3.12037
N          4.75131       12.07883        3.87321
C          6.94334       11.81698        1.18183
N          7.40853       12.49258        0.36107
C          6.55559        8.80251        3.50631
C          7.67670        7.97154        3.67744
C          7.70645        6.94299        4.60135
C          6.52295        6.65636        5.30070
C          5.34316        7.42166        5.05348
C          5.37903        8.52391        4.18094
C          4.13651        7.03018        5.65055
C          4.08725        5.92526        6.50082
C          5.24868        5.21409        6.78833
C          6.45902        5.57739        6.19440
C          8.64149        8.19340        2.56716
O          9.71859        7.66242        2.40888
C          7.88740        9.07965        1.61276
C          7.88558        8.74141        0.31162
C          6.69701        8.79277       -0.57483
C          6.86282        9.04003       -1.94901
C          5.85550        8.71022       -2.87129
C          4.68735        8.11814       -2.40611
C          4.46401        7.97442       -1.02066
C          5.46076        8.29959       -0.11037
C          3.17998        7.16773       -0.78274
C          3.25464        6.20870        0.40869
C          2.00244        8.14359       -0.58340
C          3.05321        6.47937       -2.14716
C          2.59186        5.19950       -2.45058
C          2.86010        4.65019       -3.72401
C          3.33921        5.52970       -4.72739
C          3.80477        6.81470       -4.42664
C          3.77674        7.22033       -3.10754
C          2.89537        3.17447       -3.96238
C          2.48151        2.52611       -5.15027
C          2.72121        1.11886       -5.41783
N          2.29047        0.57438       -6.57388
C          1.61379        1.34836       -7.45835
C          1.37985        2.67514       -7.20570
N          1.81406        3.26490       -6.06233
C          0.65913        3.51952       -8.10618
N          0.07865        4.19232       -8.85824
C          1.14660        0.68543       -8.63975
N          0.75161        0.16468       -9.59710
C          3.37271        0.26188       -4.51184
C          3.76521        0.86911       -3.27496
C          3.53167        2.32695       -3.00130
N          3.99506        2.69527       -1.79066
S          4.57822        1.35154       -1.03642
N          4.34001        0.24741       -2.22921
C          3.45347       -1.22694       -4.62821
C          4.56820       -1.93139       -4.11473
C          4.39265       -3.14982       -3.45140
C          3.10263       -3.64875       -3.36756
C          2.09113       -3.17131       -4.23555
C          2.26904       -1.94890       -4.87198
C          0.74940       -3.79881       -3.82904
C         -0.49214       -2.98274       -4.19502
C          0.62284       -5.20708       -4.45330
C          1.03129       -3.92964       -2.33019
C          0.22518       -3.54674       -1.26258
C          0.80391       -3.38784        0.00972
C          2.11459       -3.85518        0.21362
C          2.94956       -4.17605       -0.86476
C          2.42517       -4.10246       -2.14298
C          0.01967       -2.63373        1.02013
C          0.42947       -1.83625        2.02731
C         -0.41045       -1.11528        3.02026
C         -1.56004       -0.43935        2.77705
C         -2.22661        0.33082        3.77425
N         -2.76823        0.95377        4.58875
C         -2.14140       -0.37994        1.47614
N         -2.61240       -0.33500        0.41665
C          0.38180       -1.07825        4.28263
C          1.70026       -1.43273        3.97234
C          1.83653       -1.68056        2.53216
O          2.88863       -1.67286        1.93133
C          2.69562       -1.60304        4.91983
C          2.36137       -1.40745        6.26241
C          1.04443       -0.99072        6.60956
C          0.05907       -0.83286        5.60981
C          0.74075       -0.76906        7.96098
C          1.69555       -0.99264        8.95513
C          2.96838       -1.44092        8.61424
C          3.30319       -1.63903        7.27496
H          8.59145        6.32030        4.69895
H          4.47084        9.08608        3.97946
H          3.21344        7.56701        5.43905
H          3.13976        5.61939        6.93802
H          5.20952        4.36260        7.46341
H          7.34855        4.99241        6.41976
H          8.69189        8.11698       -0.07782
H          7.82135        9.39162       -2.32754
H          6.05818        8.78663       -3.93519
H          5.32341        8.01440        0.92631
H          3.39234        6.75408        1.35058
H          4.08305        5.49927        0.31098
H          2.32831        5.63144        0.51112
H          2.11949        8.72347        0.34020
H          1.04824        7.60691       -0.52627
H          1.91539        8.86679       -1.40471
H          2.18899        4.57740       -1.65510
H          3.48468        5.17561       -5.74549
H          4.30520        7.40091       -5.18928
H          5.52584       -1.42614       -3.99237
H          5.18777       -3.52475       -2.81416
H          1.40366       -1.45191       -5.29942
H         -0.58628       -2.88179       -5.28340
H         -0.46628       -1.97480       -3.76779
H         -1.40509       -3.47200       -3.83605
H          0.54786       -5.14982       -5.54547
H         -0.26766       -5.72465       -4.07744
H          1.48173       -5.85274       -4.22805
H         -0.79437       -3.22064       -1.45057
H          2.56510       -3.84920        1.20071
H          4.01415       -4.30091       -0.69406
H         -1.05040       -2.73414        0.84574
H          3.68890       -1.92046        4.61456
H         -0.94733       -0.56036        5.91233
H         -0.24932       -0.42676        8.25659
H          1.44053       -0.82621        9.99895
H          3.70270       -1.63691        9.39177
H          4.30354       -1.99159        7.03080
