103

C          0.83516       22.20184        1.26847
C          0.15707       22.85040        2.23664
C         -0.22315       24.21574        2.09209
N         -0.52335       25.32701        1.96051
C         -0.13634       22.22646        3.48294
N         -0.38381       21.69832        4.48508
C          1.30820       22.73333       -0.03978
C          2.44219       21.99198       -0.41353
C          3.03443       22.06421       -1.65898
C          2.43008       22.88836       -2.61006
C          1.28039       23.66244       -2.26187
C          0.73544       23.59553       -0.96008
C          0.67007       24.44051       -3.25540
C          1.15955       24.44342       -4.56399
C          2.27446       23.67983       -4.89849
C          2.91145       22.91184       -3.92534
C          2.70720       20.95380        0.59446
O          3.74971       20.37613        0.80582
C          1.41253       20.84774        1.33781
C          0.68594       19.72131        1.47441
C          0.97657       18.46946        0.83597
C          0.64269       17.19263        1.25762
C          0.83560       16.17512        0.25543
C          1.32353       16.72309       -0.92321
S          1.59380       18.39699       -0.77113
C          1.52849       15.94310       -2.06151
C          1.27006       14.56810       -2.04984
C          0.80581       14.00623       -0.86571
C          0.58127       14.79336        0.27012
S          0.58039       12.31545       -1.03105
C          1.10838       12.30542       -2.66410
C          1.41356       13.58434       -3.08132
C          1.22537       11.08516       -3.43091
C          2.10604       10.78854       -4.45330
C          1.95535        9.43704       -4.94607
N          2.74517        8.90279       -5.92073
C          3.67427        9.78785       -6.38133
C          4.57677        9.26570       -7.43636
O          4.51723        8.11883       -7.86017
C          5.59245       10.18070       -7.98971
C          5.71265       11.43728       -7.56173
C          4.83974       11.98805       -6.50666
O          4.98546       13.15364       -6.15970
C          3.81073       11.09754       -5.91770
N          3.04274       11.66007       -4.93176
C          0.94412        8.74491       -4.31096
S          0.18676        9.74621       -3.13839
C          0.47815        7.39308       -4.51471
C         -0.12019        6.55879       -3.58786
C         -0.50803        5.28875       -4.12760
C         -0.17996        5.20267       -5.47545
S          0.58381        6.62519       -6.03759
C         -0.48419        4.06391       -6.21613
C         -1.15181        2.98070       -5.63172
C         -1.47100        3.05344       -4.28176
C         -1.14673        4.18779       -3.53230
S         -2.27990        1.63242       -3.75569
C         -2.24354        0.91416       -5.31987
C         -1.61357        1.75977       -6.21099
C         -2.90218       -0.33498       -5.52061
C         -2.53840       -1.28166       -6.40231
C         -3.31144       -2.47971       -6.82500
C         -4.13812       -3.23173       -6.06358
C         -4.75574       -4.42361       -6.54921
N         -5.26323       -5.38466       -6.94729
C         -4.41575       -2.93604       -4.69534
N         -4.65161       -2.69335       -3.58408
C         -2.84565       -2.80175       -8.20986
C         -1.66958       -2.08341       -8.45430
C         -1.34585       -1.22059       -7.31511
O         -0.29642       -0.63000       -7.17610
C         -0.95745       -2.14405       -9.64125
C         -1.45280       -2.95593      -10.66326
C         -2.65965       -3.68388      -10.46322
C         -3.35194       -3.59348       -9.23310
C         -3.14360       -4.48351      -11.51003
C         -2.45783       -4.56810      -12.72424
C         -1.27890       -3.85295      -12.91348
C         -0.77892       -3.04989      -11.88934
H          3.87067       21.41497       -1.90264
H         -0.17341       24.14520       -0.73050
H         -0.21141       25.03642       -3.02747
H          0.66101       25.03565       -5.32731
H          2.64476       23.67384       -5.92072
H          3.77283       22.31060       -4.21130
H         -0.31775       19.78037        1.89125
H          0.21130       16.99009        2.23127
H          1.89628       16.40755       -2.97440
H          0.20190       14.32887        1.17766
H          1.76084       13.82066       -4.08134
H          6.23475        9.77227       -8.76309
H          6.45825       12.11139       -7.96986
H         -0.29297        6.83674       -2.55472
H         -0.21559        4.01905       -7.26956
H         -1.40797        4.22852       -2.47703
H         -1.48783        1.53902       -7.26349
H         -3.81502       -0.44872       -4.94315
H         -0.05271       -1.55453       -9.76304
H         -4.28484       -4.13874       -9.12580
H         -4.06228       -5.05481      -11.39021
H         -2.84534       -5.19495      -13.52374
H         -0.74667       -3.91966      -13.85929
H          0.14307       -2.49668      -12.05850
