99

C          2.46669        3.47444       -2.31171
C          2.47930        4.29711       -3.38437
C          3.61006        5.10483       -3.69116
N          4.53671        5.75082       -3.94351
C          1.44098        4.26574       -4.36348
N          0.61386        4.22478       -5.18148
C          3.65654        3.08763       -1.53200
C          3.65396        1.68376       -1.46881
C          4.64129        0.96156       -0.82964
C          5.55907        1.67916       -0.05365
C          5.46513        3.10292        0.03829
C          4.55049        3.81185       -0.76687
C          6.24756        3.76769        0.99352
C          7.12740        3.05895        1.81485
C          7.28147        1.68460        1.65527
C          6.50819        0.99890        0.71935
C          2.31391        1.17667       -1.87468
O          1.94485        0.02455       -1.92575
C          1.48822        2.43010       -2.03338
C          0.27933        2.46722       -1.44010
C         -0.37598        3.64881       -0.94328
C         -1.07023        3.75771        0.27060
C         -1.59920        5.06811        0.45304
C         -1.27944        5.86313       -0.60322
S         -0.41913        5.13899       -1.84436
C         -1.70682        7.16810       -0.54816
C         -2.45261        7.51168        0.53794
S         -2.51321        6.08360        1.51401
C         -2.87881        8.86506        0.44241
C         -2.40332        9.45803       -0.73140
S         -1.40556        8.38409       -1.67040
C         -2.58257       10.84836       -1.18407
C         -2.94200       11.29821       -2.48224
O         -3.24702       10.32554       -3.41800
C         -2.27590       10.25072       -4.46406
C         -3.11010       12.69051       -2.83372
O         -3.58681       12.92922       -4.10958
C         -2.62820       13.52777       -4.98383
C         -2.92979       13.75819       -1.90503
C         -2.57041       13.30823       -0.60246
C         -2.39654       11.89776       -0.25672
N         -2.03979       11.83277        1.03630
O         -2.01348       13.12415        1.50184
N         -2.34202       14.01888        0.51508
C         -3.04966       15.21820       -2.13236
C         -2.33211       16.23622       -1.49329
C         -2.68166       17.51211       -1.99966
C         -3.62064       17.40376       -2.97942
S         -4.23020       15.85985       -3.24972
C         -3.95160       18.57101       -3.63090
C         -3.36128       19.70428       -3.15811
S         -2.34009       19.19645       -1.86357
C         -3.79423       20.84253       -3.88177
C         -4.63485       20.48672       -4.93598
S         -4.98820       18.76428       -4.94427
C         -5.27184       21.29772       -5.93318
C         -4.74697       22.40158       -6.49628
C         -5.38340       23.36537       -7.43451
C         -6.24509       23.08169       -8.44309
C         -6.64458       24.05427       -9.41030
N         -6.96088       24.84449      -10.19300
C         -6.73547       21.76455       -8.67979
N         -7.13531       20.69385       -8.86857
C         -4.67303       24.66561       -7.25158
C         -3.49314       24.41202       -6.54547
C         -3.40476       22.99865       -6.17377
O         -2.39952       22.46680       -5.75512
C         -2.54948       25.37790       -6.24258
C         -2.78815       26.68228       -6.67246
C         -3.99565       26.99133       -7.36090
C         -4.94315       25.97534       -7.62840
C         -4.20810       28.31374       -7.77889
C         -3.24774       29.30164       -7.54477
C         -2.06558       28.98792       -6.87987
C         -1.84005       27.68616       -6.43790
H          4.61473       -0.12387       -0.82991
H          4.48005        4.89470       -0.70233
H          6.14452        4.84059        1.14421
H          7.69013        3.58058        2.58538
H          7.98260        1.13879        2.28188
H          6.62507       -0.07953        0.63135
H         -0.14865        1.51869       -1.11084
H         -1.18080        2.95037        0.98512
H         -3.48718        9.37182        1.18149
H         -2.00172        9.20129       -4.60764
H         -1.36009       10.81675       -4.25400
H         -2.72635       10.59972       -5.39659
H         -2.40758       12.82968       -5.79536
H         -1.69290       13.80843       -4.48971
H         -3.07650       14.41120       -5.44745
H         -1.58564       16.08508       -0.72334
H         -3.47055       21.84981       -3.65825
H         -6.27518       20.97720       -6.20358
H         -1.65159       25.10719       -5.69417
H         -5.86367       26.24568       -8.13803
H         -5.11880       28.58722       -8.30833
H         -3.42020       30.31822       -7.88956
H         -1.31503       29.75534       -6.70780
H         -0.90952       27.45915       -5.92093
