97

C         -0.35702        1.76780        3.58137
C         -1.46925        1.39365        2.90860
C         -1.52505        0.19216        2.14765
N         -1.54431       -0.78066        1.51544
C         -2.68847        2.12934        3.00882
N         -3.69380        2.69871        3.10899
C          0.85557        0.95342        3.80854
C          1.38604        1.31372        5.05895
C          2.52042        0.72762        5.58978
C          3.19673       -0.21737        4.80549
C          2.71688       -0.53717        3.50014
C          1.53218        0.04419        3.01411
C          3.45132       -1.42191        2.69908
C          4.62709       -2.00302        3.17369
C          5.07785       -1.71686        4.45931
C          4.36893       -0.82910        5.27033
C          0.66949        2.49484        5.59370
O          0.86005        3.04903        6.65395
C         -0.22723        2.92313        4.46892
C         -0.40027        4.23999        4.27207
C         -0.68962        4.82108        2.99564
C         -0.30628        4.38891        1.72256
C         -0.69962        5.31604        0.72636
C         -1.34134        6.38053        1.28082
S         -1.52749        6.35508        2.95433
C         -1.70868        7.37810        0.40882
C         -1.34569        7.20755       -0.89254
S         -0.62434        5.64207       -0.96675
C         -1.65253        8.36127       -1.66035
C         -2.21417        9.36297       -0.86252
S         -2.52129        8.79964        0.77089
C         -2.59782       10.75047       -1.24141
C         -2.51198       11.87215       -0.38088
C         -2.94571       13.18714       -0.77509
N         -2.92315       14.17878        0.14676
C         -2.43804       13.95247        1.39188
C         -1.97263       12.71752        1.74583
N         -2.00141       11.69513        0.86057
C         -1.45638       12.41532        3.04748
N         -1.04554       12.19019        4.10881
C         -2.42861       15.07287        2.27987
N         -2.40490       15.96664        3.02102
C         -3.39539       13.48439       -2.08820
C         -3.46217       12.38684       -2.99626
C         -3.07331       10.99794       -2.56143
N         -3.23887       10.09262       -3.54306
S         -3.77958       10.88859       -4.88109
N         -3.84587       12.42414       -4.28557
C         -3.80103       14.83760       -2.56465
C         -4.76430       15.17948       -3.52002
C         -4.90023       16.58790       -3.63417
C         -4.02254       17.22930       -2.81523
S         -2.96920       16.25429       -1.94688
C         -4.08810       18.60231       -2.80507
C         -5.00802       19.16044       -3.63836
S         -5.78627       17.83750       -4.42822
C         -4.96707       20.57457       -3.56187
C         -3.97352       21.00648       -2.68239
S         -3.14706       19.66756       -1.90461
C         -3.48496       22.32122       -2.39102
C         -4.20888       23.45246       -2.38577
C         -3.73380       24.86288       -2.32544
C         -2.64639       25.33754       -1.66661
C         -2.32939       26.72171       -1.60626
N         -2.06477       27.85474       -1.56321
C         -1.76117       24.49343       -0.93406
N         -1.03180       23.80687       -0.34836
C         -4.78754       25.68450       -2.99841
C         -5.91688       24.87615       -3.17359
C         -5.67905       23.52862       -2.66315
O         -6.54730       22.70232       -2.48231
C         -7.08416       25.28402       -3.79351
C         -7.14642       26.58979       -4.26911
C         -6.02973       27.45734       -4.10442
C         -4.84784       26.98878       -3.47721
C         -6.13639       28.77348       -4.57993
C         -7.30516       29.21823       -5.20592
C         -8.38372       28.35478       -5.37616
C         -8.30465       27.04523       -4.91057
H          2.89388        1.04106        6.56064
H          1.19026       -0.19505        2.01098
H          3.12005       -1.66180        1.69030
H          5.19079       -2.68116        2.53770
H          5.98957       -2.17914        4.82947
H          4.74813       -0.61273        6.26713
H         -0.15060        4.92997        5.07998
H          0.26536        3.49662        1.50718
H         -1.42908        8.45659       -2.71547
H         -5.36114       14.47621       -4.08677
H         -5.61205       21.21721       -4.14562
H         -2.40976       22.36791       -2.24261
H         -7.91006       24.58750       -3.90771
H         -4.00417       27.66808       -3.40020
H         -5.31067       29.47262       -4.46217
H         -7.37400       30.24313       -5.56209
H         -9.28985       28.69980       -5.86774
H         -9.15707       26.38299       -5.05073
