119

C          5.09929        7.59879       -0.37759
C          5.10207        8.18883        0.83936
C          5.68246        7.56748        1.97185
N          6.15308        7.03085        2.89711
C          4.63206        9.52748        1.02415
N          4.31000       10.63017        1.16792
C          5.86342        6.40005       -0.78131
C          6.25988        6.58012       -2.11780
C          7.02528        5.65647       -2.80529
C          7.33268        4.45272       -2.15689
C          6.85346        4.21058       -0.83398
C          6.13781        5.20479       -0.14101
C          7.08225        2.95963       -0.24492
C          7.78912        1.96897       -0.92741
C          8.29358        2.22130       -2.20012
C          8.06770        3.45510       -2.81181
C          5.58110        7.76709       -2.69090
O          5.71163        8.21843       -3.80719
C          4.61390        8.18822       -1.62223
C          3.40827        8.65655       -1.97977
C          2.25481        8.63626       -1.13142
C          1.86325        7.74549       -0.14511
C          0.60957        8.06618        0.50012
C          0.02256        9.17477       -0.09918
S          1.03759        9.82070       -1.34318
C         -1.22939        9.67106        0.31675
O         -1.66123       10.83455       -0.31355
C         -3.04768       10.94283       -0.60441
C         -1.89194        9.08484        1.42595
C         -1.27446        7.99436        2.05384
C         -0.05072        7.45227        1.59409
O          0.67905        6.47052        2.26860
C          0.01451        5.31798        2.78406
S         -2.18755        7.52020        3.41953
C         -3.40643        8.67211        3.23166
C         -3.12369        9.43091        2.11629
C         -4.54757        8.71833        4.17324
C         -5.86968        9.05003        3.79103
C         -6.95715        9.04804        4.74027
N         -8.19023        9.41553        4.32580
C         -8.41760        9.69699        3.02609
C         -7.40057        9.66946        2.11439
N         -6.12595        9.36078        2.49120
C         -7.59828        9.94198        0.72144
N         -7.77699       10.16370       -0.40418
C         -9.78025       10.00323        2.68797
N        -10.88182       10.23831        2.39606
C         -6.80530        8.66259        6.09500
C         -5.48384        8.33938        6.51842
C         -4.33990        8.39204        5.55274
N         -3.16977        8.10602        6.15118
S         -3.46823        7.70535        7.71490
N         -5.09816        7.94661        7.74845
C         -7.91604        8.52857        7.06786
C         -7.92888        8.74841        8.43391
C         -9.14479        8.34550        9.10994
C        -10.11957        8.03614        8.16000
S         -9.44985        7.96352        6.57736
C        -11.46064        7.77152        8.50412
O        -12.34705        7.53526        7.45299
C        -13.66090        8.07411        7.59672
C        -11.80787        7.59242        9.85915
C        -10.82477        7.83013       10.82314
C         -9.51414        8.25000       10.47909
O         -8.68653        8.59622       11.54512
C         -7.31075        8.24515       11.46933
S        -11.44467        7.51915       12.41874
C        -12.97192        7.02202       11.84021
C        -13.02055        7.12576       10.47416
C        -13.98518        6.54024       12.71539
C        -14.89806        7.34866       13.27749
C        -15.82148        7.08122       14.40290
C        -16.48171        5.92937       14.66919
C        -17.39871        5.79356       15.74896
N        -18.13833        5.67635       16.62941
C        -16.35102        4.77806       13.84471
N        -16.23634        3.83674       13.16710
C        -15.99188        8.38654       15.10756
C        -15.47200        9.39593       14.28545
C        -14.93130        8.82892       13.04775
O        -14.64643        9.45469       12.04815
C        -15.41695       10.73181       14.64010
C        -15.90648       11.09600       15.89500
C        -16.45842       10.10429       16.75470
C        -16.48587        8.74777       16.35437
C        -16.96287       10.50403       18.00222
C        -16.91349       11.84242       18.40074
C        -16.34844       12.80155       17.56515
C        -15.84717       12.43061       16.31857
H          7.31464        5.84411       -3.83544
H          5.76831        5.00537        0.86122
H          6.69811        2.73687        0.74883
H          7.94618        0.99850       -0.46310
H          8.85424        1.45120       -2.72417
H          8.46004        3.62358       -3.81282
H          3.25526        8.96864       -3.01442
H          2.43853        6.87167        0.13585
H         -3.16644       11.65112       -1.42991
H         -3.57064       11.39351        0.24052
H         -3.49943        9.99053       -0.90015
H          0.73090        4.78255        3.41644
H         -0.31227        4.65128        1.98271
H         -0.81594        5.51823        3.45302
H         -3.77904       10.23330        1.82181
H         -7.05055        9.12517        8.93398
H        -13.67821        9.05840        8.07738
H        -14.30365        7.36579        8.12051
H        -14.10491        8.16883        6.60093
H         -7.15167        7.22146       11.11621
H         -6.88750        8.32579       12.47663
H         -6.75950        8.97162       10.87237
H        -13.91416        6.83581        9.94620
H        -13.92710        5.48278       12.95028
H        -14.97928       11.45602       13.95888
H        -16.87400        8.01224       17.05258
H        -17.40646        9.77592       18.67868
H        -17.31573       12.13656       19.36709
H        -16.30042       13.84074       17.88112
H        -15.40740       13.19489       15.68050
