91

C         -4.94475        1.85097       -3.61149
C         -3.92441        2.56475       -4.13863
C         -4.00952        3.15017       -5.43239
N         -4.10364        3.63246       -6.48399
C         -2.67435        2.69302       -3.45656
N         -1.64774        2.75907       -2.92141
C         -6.18248        1.41261       -4.28710
C         -6.55664        0.17689       -3.73113
C         -7.68962       -0.51012       -4.12542
C         -8.54651        0.11722       -5.04078
C         -8.23489        1.41976       -5.53578
C         -7.02850        2.04907       -5.17783
C         -9.16608        2.08105       -6.34842
C        -10.37260        1.47058       -6.69232
C        -10.65401        0.18116       -6.24963
C         -9.74655       -0.49290       -5.43094
C         -5.71959       -0.11383       -2.54066
O         -5.75110       -1.09963       -1.83733
C         -4.94668        1.15442       -2.32589
C         -4.82230        1.61186       -1.06735
C         -4.65867        2.99400       -0.72156
C         -3.99389        3.51383        0.37636
C         -3.98549        4.94297        0.36102
C         -4.63050        5.46915       -0.71437
S         -5.51576        4.24979       -1.56745
C         -4.39566        6.86608       -0.88417
C         -3.58115        7.36827        0.11978
S         -3.31906        6.19086        1.36548
C         -2.99608        8.76597        0.21894
C         -1.64758        8.72115        0.99694
N         -2.66466        9.21011       -1.07265
N         -2.76170       10.58951       -1.55780
C         -3.24248       11.65972       -0.81071
C         -4.03873       11.13187        0.28509
C         -3.93053        9.74275        0.76498
N         -4.80337        9.59628        1.77681
O         -5.43902       10.81079        1.92403
N         -4.95779       11.75507        1.04206
C         -1.96770       12.38915       -0.24982
C         -3.96094       12.71519       -1.63318
C         -4.07330       14.07901       -1.39856
C         -4.70106       14.75327       -2.48641
C         -5.13353       13.90653       -3.45672
S         -4.81010       12.24148       -3.06220
C         -5.72633       14.58284       -4.56267
C         -5.72456       15.95703       -4.40399
S         -5.02396       16.41585       -2.88349
C         -6.13277       17.01845       -5.27520
C         -7.16319       17.00869       -6.13929
C         -7.56077       18.05936       -7.12404
C         -7.35009       19.39759       -7.04148
C         -7.85290       20.32419       -8.00215
N         -8.26112       21.08529       -8.77250
C         -6.66213       20.00931       -5.95326
N         -6.09908       20.51245       -5.07334
C         -8.41797       17.38001       -8.14614
C         -8.72597       16.10059       -7.67561
C         -8.07621       15.84212       -6.39169
O         -8.30454       14.86660       -5.70927
C         -9.51896       15.19048       -8.35593
C        -10.04366       15.57085       -9.58952
C         -9.74690       16.85924      -10.11336
C         -8.92327       17.75149       -9.38720
C        -10.28788       17.21800      -11.35718
C        -11.09962       16.33049      -12.06818
C        -11.38136       15.06966      -11.55013
C        -10.85543       14.69037      -10.31682
H         -7.93879       -1.46253       -3.66646
H         -6.81206        3.05026       -5.54133
H         -8.97201        3.09159       -6.70349
H        -11.09463        2.00511       -7.30475
H        -11.59053       -0.29556       -6.52820
H         -9.99780       -1.49269       -5.08256
H         -4.97555        0.92089       -0.23820
H         -3.48750        2.91360        1.12265
H         -4.75189        7.44915       -1.72576
H         -0.99531        7.93872        0.59161
H         -1.82119        8.49130        2.05450
H         -1.12960        9.68080        0.95071
H         -1.29563       11.68686        0.24708
H         -2.24940       13.15829        0.47866
H         -1.42802       12.89141       -1.06200
H         -3.67832       14.59514       -0.53287
H         -6.11096       14.05535       -5.42509
H         -5.49422       17.89460       -5.21488
H         -9.70882       14.20987       -7.92772
H         -8.70012       18.71469       -9.83468
H        -10.08654       18.19796      -11.78592
H        -11.51332       16.62527      -13.02945
H        -12.01188       14.37954      -12.10507
H        -11.08597       13.70044       -9.92756
