87

C          1.90974        2.45511       -2.63969
C          2.47729        3.63309       -2.98476
C          2.71307        3.99090       -4.34159
N          2.88074        4.27680       -5.45357
C          2.97705        4.53244       -1.99583
N          3.42502        5.24075       -1.19327
C          1.67805        1.29864       -3.52695
C          1.88106        0.13557       -2.76510
C          1.80994       -1.13401       -3.30623
C          1.43365       -1.25013       -4.65210
C          1.11208       -0.08277       -5.40823
C          1.25653        1.19532       -4.84046
C          0.63663       -0.22643       -6.71867
C          0.51133       -1.49016       -7.29557
C          0.87363       -2.62540       -6.57577
C          1.32882       -2.50766       -5.26153
C          2.00135        0.48619       -1.32944
O          2.19214       -0.26758       -0.40018
C          1.70297        1.95584       -1.28154
C          1.01154        2.43991       -0.23641
C          0.23803        3.64540       -0.25110
C         -0.00475        4.48933        0.81885
C         -0.83789        5.58974        0.45400
C         -1.22378        5.55467       -0.84725
S         -0.69035        4.10982       -1.64003
C         -1.96943        6.69842       -1.24754
C         -2.18399        7.57956       -0.19795
S         -1.47990        6.97974        1.27344
C         -2.88218        8.83351       -0.20182
C         -3.42898        9.33662       -1.32434
C         -4.12662       10.62903       -1.28411
C         -4.67694       11.17136       -2.40101
C         -5.35617       12.42011       -2.37028
N         -5.91174       13.44072       -2.32920
C         -4.60834       10.52886       -3.67408
N         -4.53763        9.98594       -4.69311
C         -4.19799       11.29222        0.02727
C         -3.62348       10.71123        1.09730
O         -2.95547        9.49556        1.01732
C         -3.67792       11.29980        2.40200
C         -3.77510       12.63849        2.75847
C         -3.93064       12.80931        4.16885
C         -3.85234       11.63795        4.85096
S         -3.60534       10.27944        3.80006
C         -4.01719       11.79140        6.25589
C         -4.34669       13.08780        6.60797
S         -4.21673       14.15415        5.24260
C         -4.80647       13.63506        7.85252
C         -4.47145       13.20740        9.08308
C         -5.06103       13.58388       10.39955
C         -5.53856       14.79730       10.76987
C         -5.97821       15.07970       12.09549
N         -6.33800       15.30869       13.17496
C         -5.57652       15.90982        9.87872
N         -5.61715       16.81059        9.14933
C         -4.86054       12.40378       11.29968
C         -3.96624       11.53369       10.66706
C         -3.54402       12.06662        9.37447
O         -2.59279       11.65630        8.74706
C         -3.57211       10.30880       11.17426
C         -4.09156        9.91523       12.40257
C         -4.98564       10.77556       13.10068
C         -5.37422       12.01612       12.53201
C         -5.46631       10.35529       14.35056
C         -5.09127        9.11851       14.88592
C         -4.23638        8.27614       14.18055
C         -3.73677        8.67353       12.94388
H          1.99168       -2.00470       -2.68291
H          1.00155        2.07753       -5.42147
H          0.34948        0.64606       -7.30282
H          0.13356       -1.58679       -8.31045
H          0.79116       -3.60738       -7.03477
H          1.59360       -3.41075       -4.71537
H          0.93012        1.83217        0.66502
H          0.40762        4.34840        1.81034
H         -2.32027        6.84407       -2.26137
H         -3.36050        8.79900       -2.26285
H         -4.72618       12.23481        0.13150
H         -3.77358       13.45692        2.04964
H         -3.96034       10.95111        6.93390
H         -5.56244       14.40908        7.74293
H         -2.88973        9.68134       10.60786
H         -6.08603       12.62992       13.07661
H         -6.13722       10.98986       14.92627
H         -5.47001        8.81031       15.85724
H         -3.95370        7.31074       14.59285
H         -3.06791        8.00460       12.40509
