91

C         -2.73512        0.96779       -5.31670
C         -1.62015        0.23116       -5.48680
C         -1.43210       -0.61357       -6.62164
N         -1.30110       -1.29447       -7.55427
C         -0.57663        0.19444       -4.50573
N          0.26092        0.18678       -3.71454
C         -3.93230        1.00809       -6.20781
C         -5.02477        1.44388       -5.44509
C         -6.27120        1.74053       -5.96596
C         -6.44069        1.61090       -7.34410
C         -5.36290        1.14128       -8.15123
C         -4.10991        0.83618       -7.57140
C         -5.56025        1.02782       -9.53423
C         -6.77563        1.39528      -10.11640
C         -7.81509        1.87619       -9.32538
C         -7.65189        1.97724       -7.94478
C         -4.60359        1.70918       -4.06948
O         -5.33460        1.82552       -3.11021
C         -3.10723        1.77453       -4.13724
C         -2.36103        2.66562       -3.45942
C         -2.91412        3.70512       -2.64246
C         -4.08977        4.42125       -2.77449
C         -4.25681        5.45504       -1.80958
Cl        -5.68358        6.40947       -1.86130
C         -3.16210        5.57882       -0.97079
S         -2.03605        4.30469       -1.30305
C         -2.88297        6.54735        0.08168
C         -1.66388        7.07175        0.48818
Cl        -0.11759        6.80833       -0.22038
C         -1.76974        7.92525        1.63148
C         -3.07411        8.17043        2.00481
S         -4.14199        7.21778        1.05500
C         -3.59087        9.04476        3.04338
C         -3.10395       10.22522        3.61585
C         -1.91789       10.91497        3.15981
O         -1.56880       10.94624        1.99032
O         -1.15680       11.50293        4.11063
C         -4.09666       10.60162        4.58036
N         -5.10734        9.72616        4.57304
O         -4.78660        8.76517        3.65101
C         -4.16227       11.77681        5.53852
C         -5.32555       12.24385        6.11622
C         -5.09189       13.26859        7.09485
Cl        -6.40482       13.85909        8.03071
C         -3.76014       13.65418        7.16875
S         -2.83889       12.66543        6.11113
C         -3.10616       14.70667        7.94185
C         -1.81130       14.77136        8.43780
Cl        -0.57667       13.57520        8.37197
C         -1.53533       15.99170        9.11951
C         -2.61249       16.85076        9.19250
S         -3.93618       16.17252        8.32437
C         -2.80142       18.08568        9.89357
C         -1.85179       18.99456       10.18009
C         -1.93504       20.17707       11.08200
C         -3.00975       20.97513       11.29860
C         -2.94534       22.15625       12.09577
N         -2.89195       23.11439       12.74692
C         -4.27729       20.73767       10.69031
N         -5.30866       20.53201       10.19931
C         -0.54142       20.43497       11.56195
C          0.33342       19.67674       10.77576
C         -0.40638       18.89028        9.78947
O          0.09947       18.33094        8.84103
C          1.70652       19.64135       10.94950
C          2.25461       20.40894       11.97543
C          1.40391       21.20206       12.79616
C          0.00378       21.19890       12.58687
C          1.98589       21.97430       13.81281
C          3.36692       21.95665       14.02481
C          4.18928       21.16487       13.22830
C          3.63646       20.39517       12.20689
H         -7.05694        2.12356       -5.31908
H         -3.29200        0.53183       -8.21795
H         -4.76213        0.66384      -10.17838
H         -6.90669        1.31398      -11.19239
H         -8.75395        2.17756       -9.78359
H         -8.47560        2.36169       -7.34530
H         -1.28699        2.72070       -3.62622
H         -4.82589        4.22889       -3.54441
H         -0.90499        8.36339        2.11348
H         -1.49944       11.41415        5.02070
H         -6.31078       11.86182        5.86983
H         -0.57367       16.19192        9.57424
H         -3.80772       18.22197       10.28186
H          2.31993       19.01481       10.30821
H         -0.61637       21.78860       13.25533
H          1.36877       22.60348       14.45127
H          3.80206       22.56288       14.81576
H          5.26271       21.14684       13.39931
H          4.29521       19.78290       11.59377
