90

C         -2.43507        1.54317       -3.95229
C         -2.60382        2.42775       -4.96515
C         -3.88791        2.66649       -5.52693
N         -4.93160        2.87970       -5.97311
C         -1.49115        3.02363       -5.62553
N         -0.58538        3.46553       -6.20717
C         -3.38708        0.49476       -3.54940
C         -2.65549       -0.70528       -3.45204
C         -3.22945       -1.90267       -3.06621
C         -4.52420       -1.84843       -2.53304
C         -5.20380       -0.59522       -2.43580
C         -4.66707        0.56105       -3.03694
C         -6.36576       -0.52022       -1.65352
C         -6.88219       -1.65791       -1.02765
C         -6.28298       -2.89789       -1.22778
C         -5.11368       -2.99475       -1.98260
C         -1.19839       -0.38253       -3.43325
O         -0.26574       -1.15058       -3.35729
C         -1.17360        1.12869       -3.37110
C         -0.45900        1.74907       -2.41046
C         -0.80886        3.03631       -1.77374
C         -1.61080        3.08026       -0.57606
C         -1.92491        4.42389        0.15611
N         -2.71906        4.22553        1.22243
S         -2.99294        2.60264        1.35889
N         -2.17081        2.02624        0.04159
C         -1.41170        5.68058       -0.31810
C         -0.63967        5.56353       -1.50566
C         -0.05494        6.62399       -2.16320
S          0.82777        6.13318       -3.54629
C          0.47042        4.48088       -3.27521
C         -0.34711        4.29795       -2.18726
C         -1.68377        6.96244        0.35015
N         -1.76163        8.12341       -0.28188
C         -2.00505        9.11392        0.61857
C         -2.14756        8.76239        1.92241
S         -1.83629        7.07060        2.08995
N         -2.47497        9.74260        2.80897
C         -2.58446       10.89537        2.16432
S         -2.15910       10.82399        0.46819
C         -2.97584       12.16431        2.79079
C         -3.68758       13.19240        2.07232
C         -4.10387       14.51939        2.74840
N         -4.72409       15.36011        1.90303
S         -4.83260       14.59068        0.44473
N         -4.11256       13.14681        0.79670
C         -3.85588       14.75917        4.13052
C         -3.23662       13.69338        4.81279
C         -3.04312       13.66770        6.17562
S         -2.20296       12.25893        6.67407
C         -2.14159       11.64128        5.07301
C         -2.78592       12.45886        4.16945
C         -4.29832       15.99667        4.76678
C         -3.54333       17.09767        4.90827
C         -3.81480       18.27709        5.74621
C         -4.98764       18.95227        5.83846
C         -5.10752       20.15522        6.59402
N         -5.20199       21.12664        7.22270
C         -6.15623       18.54452        5.12630
N         -7.10698       18.21092        4.55718
C         -2.49539       18.68046        6.30442
C         -1.49226       18.05944        5.54313
C         -2.09516       17.18392        4.52180
O         -1.52686       16.66048        3.58835
C         -0.14260       18.16149        5.83408
C          0.23197       18.89848        6.96431
C         -0.76460       19.53955        7.75695
C         -2.12901       19.42250        7.41824
C         -0.36691       20.26815        8.88819
C          0.97982       20.35729        9.24547
C          1.94882       19.71467        8.48081
C          1.57842       18.99110        7.34645
H         -2.63744       -2.81270       -3.02971
H         -5.19098        1.51027       -2.97665
H         -6.84840        0.43743       -1.47185
H         -7.75056       -1.57364       -0.37916
H         -6.70488       -3.78676       -0.76485
H         -4.64213       -3.96944       -2.09379
H          0.29390        1.17698       -1.86789
H         -0.08512        7.68161       -1.93126
H          0.87641        3.74512       -3.95682
H         -3.34303       14.38756        6.92460
H         -1.64934       10.69130        4.91182
H         -5.29427       15.92884        5.19465
H          0.58707       17.63858        5.22209
H         -2.87137       19.88041        8.06578
H         -1.10439       20.77496        9.50804
H          1.27130       20.92680       10.12477
H          2.99596       19.77616        8.76741
H          2.35348       18.49158        6.76834
