93

C         -1.66990        1.75131       -2.86018
C         -0.70021        2.23444       -3.66570
C         -0.93030        2.46828       -5.05110
N         -1.12638        2.63994       -6.18210
C          0.63684        2.40665       -3.19891
N          1.73340        2.52276       -2.83698
C         -3.03384        1.33135       -3.23765
C         -3.38381        0.23644       -2.42890
C         -4.64999       -0.31641       -2.41390
C         -5.65199        0.35663       -3.12147
C         -5.33762        1.53222       -3.87122
C         -4.00697        1.98029       -3.97659
C         -6.38492        2.28219       -4.42308
C         -7.71293        1.88834       -4.24899
C         -8.01148        0.71509       -3.56156
C         -6.98638       -0.05374       -3.01113
C         -2.36048        0.05337       -1.37074
O         -2.32247       -0.81437       -0.52650
C         -1.50804        1.28661       -1.48633
C         -1.19055        1.92214       -0.34657
C         -0.91464        3.32362       -0.20818
C         -0.12532        3.93911        0.74853
O          0.54762        3.17942        1.65247
C          0.77388        3.82883        2.89880
C         -0.10062        5.36167        0.62435
C         -0.94263        5.84584       -0.36147
S         -1.76924        4.53328       -1.09912
C         -1.22749        7.25529       -0.73611
C         -1.34053        8.29951        0.21131
C         -1.66345        9.65753       -0.16249
N         -1.81670       10.57577        0.82246
C         -1.57187       10.25160        2.11672
C         -1.21276        8.97747        2.45736
N         -1.12770        8.00074        1.51752
C         -0.86161        8.60064        3.79320
N         -0.55712        8.31324        4.87607
C         -1.67056       11.31784        3.06237
N         -1.73033       12.17224        3.85314
C         -1.80585       10.07757       -1.51614
C         -1.60984        9.06424       -2.50338
C         -1.34412        7.62736       -2.10671
N         -1.22142        6.81537       -3.17366
S         -1.40887        7.73468       -4.52869
N         -1.58966        9.21709       -3.83860
C         -2.13044       11.47803       -1.93260
C         -2.88286       11.98272       -2.98627
O         -3.45696       11.18478       -3.92265
C         -3.47951       11.78367       -5.22236
C         -3.08478       13.39306       -2.90533
C         -2.40160       14.00314       -1.87786
S         -1.47220       12.81965       -1.04580
C         -2.38526       15.35447       -1.40770
C         -2.44580       16.47036       -2.15804
C         -2.33295       17.88971       -1.70612
C         -2.77282       18.42469       -0.54166
C         -2.73806       19.82477       -0.26808
N         -2.70906       20.96520       -0.04998
C         -3.38798       17.64245        0.48113
N         -3.88741       17.00483        1.31149
C         -1.83532       18.66894       -2.88136
C         -1.93290       17.85821       -4.01533
C         -2.40543       16.51971       -3.66284
O         -2.69641       15.68663       -4.49395
C         -1.57926       18.25468       -5.29278
C         -1.08035       19.54268       -5.45973
C         -0.93880       20.39672       -4.33312
C         -1.31133       19.94403       -3.04623
C         -0.42587       21.68771       -4.53100
C         -0.06491       22.12566       -5.80855
C         -0.20384       21.28270       -6.90570
C         -0.70733       19.99402       -6.73685
H         -4.87525       -1.14819       -1.75240
H         -3.77950        2.89603       -4.51619
H         -6.18140        3.21142       -4.95179
H         -8.51706        2.50666       -4.64031
H         -9.04663        0.41048       -3.42937
H         -7.24561       -0.95162       -2.45341
H         -1.26475        1.36855        0.59065
H          1.24518        3.10762        3.57286
H         -0.17113        4.14831        3.35302
H          1.45934        4.67487        2.79021
H          0.49583        6.01223        1.24960
H         -3.57454       10.98634       -5.96547
H         -2.55761       12.33593       -5.44791
H         -4.34955       12.44137       -5.31983
H         -3.73893       13.92708       -3.57953
H         -2.26917       15.44362       -0.33001
H         -1.68219       17.56273       -6.12409
H         -1.16243       20.61463       -2.20253
H         -0.30699       22.37052       -3.69170
H          0.32495       23.13140       -5.94467
H          0.07758       21.62545       -7.89815
H         -0.80688       19.34761       -7.60383
