138

C          4.85315        3.67451       -4.26223
C          5.64833        2.75955       -3.66309
C          6.58227        1.96540       -4.38206
N          7.35011        1.32150       -4.96986
C          5.55300        2.47051       -2.26310
N          5.46686        2.25607       -1.14065
C          4.77105        3.96480       -5.72844
C          3.54704        4.60087       -5.97051
C          3.15758        5.09990       -7.20097
C          4.03498        4.94756       -8.27365
C          5.27186        4.26616       -8.08550
C          5.63529        3.78676       -6.80187
C          6.11585        4.10013       -9.19542
C          5.76461        4.61113      -10.44880
C          4.56908        5.30442      -10.61393
C          3.70710        5.47029       -9.53214
C          2.77736        4.71247       -4.73128
O          1.57475        4.85463       -4.67058
C          3.76425        4.46216       -3.62676
C          3.73903        5.03907       -2.40787
C          2.79734        6.02112       -1.96112
C          2.36143        6.28700       -0.68104
C          1.37871        7.35914       -0.56524
C          0.66932        7.86593        0.55618
C          0.89346        7.24477        1.91195
C          1.15225        5.92467        2.27123
C          1.27201        5.71037        3.68199
C          1.02252        6.85632        4.39806
S          0.94182        8.20127        3.36016
C          0.89857        7.02393        5.87592
C         -0.27720        8.91036        0.36767
C         -0.54041        9.48046       -0.89088
C          0.22177        9.02831       -2.01289
C          1.16134        7.96568       -1.81497
S          2.21248        7.23763       -2.97222
C          0.03597        9.67352       -3.38101
C         -1.06625       10.27047       -3.99504
C         -0.82928       10.73681       -5.33714
C          0.45347       10.48131       -5.75465
S          1.37644        9.85740       -4.47746
C          1.09810       10.74452       -7.07612
C         -1.60246       10.46843       -0.76098
C         -2.05627       10.70706        0.52401
S         -1.27876        9.64198        1.56384
C         -3.06857       11.65800        0.97392
C         -3.56299       11.97834        2.23397
N         -3.07609       11.39358        3.46005
O         -1.92672       11.69177        3.80574
O         -3.87964       10.70359        4.10057
C         -4.64206       12.96321        2.21482
C         -5.35580       13.42395        3.45265
C         -4.90124       13.41171        0.92025
S         -3.87872       12.60541       -0.20155
C         -5.87027       14.40730        0.45035
C         -6.72779       15.20578        1.17861
C         -7.60279       16.07541        0.40917
C         -8.66877       16.94526        0.80349
C         -9.11688       16.99329        2.25399
C         -9.12545       16.02448        3.25912
C         -9.68778       16.46604        4.50954
C        -10.12348       17.76857        4.45014
S         -9.67594       18.47875        2.96878
C        -10.83359       18.58474        5.48445
C         -9.29439       17.75344       -0.19196
C         -8.80405       17.82135       -1.50701
C         -7.78245       16.91721       -1.90754
C         -7.23666       16.02289       -0.94878
S         -6.11858       14.72716       -1.19968
C         -7.32324       16.91392       -3.34628
C         -8.02773       17.14695       -4.52680
C         -7.23409       17.03436       -5.71877
C         -5.93615       16.67429       -5.44264
S         -5.65701       16.66932       -3.76229
C         -4.81510       16.36518       -6.38069
C         -9.42311       18.92599       -2.20807
C        -10.48518       19.52173       -1.56283
S        -10.73365       18.72934       -0.07775
C        -11.30407       20.64827       -1.89144
C        -11.62591       21.04879       -3.13292
C        -12.20751       22.34576       -3.56616
C        -13.14662       23.08753       -2.92755
C        -13.69272       24.27698       -3.48173
N        -14.12823       25.25247       -3.94262
C        -13.70295       22.69481       -1.66757
N        -14.14146       22.38344       -0.64127
C        -11.66484       22.59238       -4.93921
C        -11.09809       21.39703       -5.40220
C        -11.21862       20.34652       -4.39200
O        -11.06511       19.16335       -4.59887
C        -10.43667       21.26039       -6.61056
C        -10.32260       22.38995       -7.41890
C        -10.90125       23.62206       -6.99844
C        -11.56567       23.71370       -5.75169
C        -10.78118       24.73945       -7.83715
C        -10.09554       24.65210       -9.05080
C         -9.51239       23.45032       -9.44358
C         -9.62559       22.32328       -8.63250
H          2.20681        5.61628       -7.30043
H          6.60419        3.31069       -6.68288
H          7.06002        3.56769       -9.09727
H          6.42881        4.47093      -11.29818
H          4.30337        5.71290      -11.58584
H          2.77643        6.01522       -9.67963
H          4.53179        4.83779       -1.69358
H          2.72306        5.70237        0.15286
H          1.24256        5.11027        1.56576
H          1.47905        4.75154        4.14268
H          0.20572        6.28144        6.28963
H          0.51576        8.01226        6.15418
H          1.87224        6.88740        6.35521
H         -2.04160       10.37428       -3.54340
H         -1.57382       11.21855       -5.96140
H          0.37146       10.68875       -7.89372
H          1.88879       10.01656       -7.29631
H          1.54769       11.74257       -7.08376
H         -2.02068       11.00303       -1.59831
H         -5.07751       12.86520        4.34774
H         -6.43702       13.29573        3.33665
H         -5.12703       14.47567        3.65295
H         -6.75922       15.18552        2.25049
H         -8.77130       15.01028        3.13271
H         -9.78924       15.84533        5.39413
H        -11.26049       17.95639        6.27448
H        -11.66060       19.15541        5.04445
H        -10.14365       19.29365        5.95378
H         -9.08462       17.38614       -4.56391
H         -7.61194       17.18434       -6.72426
H         -5.12754       16.45708       -7.42647
H         -4.45114       15.34079       -6.23509
H         -3.97688       17.05104       -6.21991
H         -9.07481       19.26473       -3.17354
H        -11.60086       21.25279       -1.03766
H         -9.99676       20.30586       -6.88566
H        -11.95581       24.67944       -5.44522
H        -11.22059       25.69413       -7.55378
H        -10.01172       25.52803       -9.68942
H         -8.96706       23.38983      -10.38206
H         -9.15684       21.39449       -8.95297
