134

C          4.63560        2.32501       -0.60954
C          5.72393        1.94272        0.09677
C          6.41150        0.71747       -0.15995
N          6.96436       -0.26646       -0.37638
C          6.21778        2.70455        1.19670
N          6.61523        3.33835        2.08886
C          3.93498        1.55408       -1.67697
C          2.62782        2.05308       -1.78383
C          1.71672        1.63183       -2.73642
C          2.12833        0.65664       -3.64750
C          3.43703        0.10095       -3.54967
C          4.33723        0.56334       -2.56203
C          3.81397       -0.89550       -4.46319
C          2.93786       -1.31726       -5.46642
C          1.67368       -0.74552       -5.57765
C          1.26893        0.23328       -4.67094
C          2.41459        3.14384       -0.82426
O          1.34113        3.58797       -0.48013
C          3.78930        3.50743       -0.34821
C          4.16208        4.76193       -0.04186
C          3.25010        5.85412       -0.04747
C          2.49353        6.34740        0.98599
C          1.69974        7.51472        0.65390
C          0.87013        8.33187        1.46512
C          0.75166        8.06764        2.93338
C         -0.37409        8.06085        3.75099
C         -0.09809        7.73033        5.11263
C          1.23076        7.43472        5.30908
S          2.14955        7.79053        3.91371
C          1.87921        6.89231        6.53880
C          0.13323        9.38808        0.88768
C          0.15157        9.63853       -0.49485
C          1.01537        8.84553       -1.32145
C          1.79628        7.81206       -0.71995
S          2.99924        6.78335       -1.44920
C          1.09031        9.10114       -2.81030
C          1.30701        8.23917       -3.88508
C          1.26528        8.87385       -5.17358
C          0.98425       10.21584       -5.07846
S          0.96650       10.71007       -3.44954
C          0.76156       11.21970       -6.16311
C         -0.79367       10.70305       -0.79757
C         -1.40410       11.27609        0.29508
S         -0.85715       10.54756        1.71357
C         -2.39435       12.32676        0.27845
N         -3.18639       12.49690       -0.76423
C         -4.01428       13.54468       -0.50806
C         -3.87156       14.19545        0.68083
S         -2.60910       13.44475        1.59540
N         -4.68860       15.25915        0.92170
C         -5.48882       15.41699       -0.11974
S         -5.27711       14.28041       -1.42350
C         -6.46660       16.48430       -0.16701
C         -6.70096       17.44024        0.79783
C         -7.68811       18.44837        0.43364
C         -8.10332       19.64997        1.08750
C         -7.36589       20.12547        2.32347
C         -6.03489       19.97086        2.71132
C         -5.68802       20.63707        3.93361
C         -6.74476       21.34945        4.44604
S         -8.17813       20.97760        3.60481
C         -6.74704       22.30812        5.59105
C         -9.16512       20.41182        0.51518
C         -9.88268       19.96540       -0.61119
C         -9.45417       18.78122       -1.28135
C         -8.32399       18.08198       -0.77160
S         -7.51192       16.72384       -1.47041
C        -10.18016       18.28813       -2.52595
C         -9.73152       17.57788       -3.63915
C        -10.74171       17.27991       -4.61470
C        -11.97428       17.75529       -4.24368
S        -11.89067       18.50909       -2.72950
C        -13.28363       17.63449       -4.95019
C        -10.97318       20.87367       -0.88031
C        -11.08076       21.96370       -0.05509
S         -9.74138       21.99532        0.97349
C        -12.01916       23.03855       -0.05287
C        -13.32776       22.90291       -0.32544
C        -14.33457       23.94958       -0.61509
C        -14.43862       25.16380       -0.02344
C        -15.51432       26.05499       -0.30322
N        -16.39011       26.77927       -0.53809
C        -13.51593       25.61631        0.96785
N        -12.74890       25.99455        1.77267
C        -15.30875       23.32264       -1.56349
C        -15.07291       21.94146       -1.57137
C        -13.99482       21.60215       -0.64832
O        -13.77724       20.49341       -0.21213
C        -15.72714       21.03608       -2.38636
C        -16.70394       21.53058       -3.24506
C        -17.00491       22.92369       -3.24860
C        -16.28986       23.81531       -2.41161
C        -18.01579       23.38388       -4.10435
C        -18.70034       22.50133       -4.94449
C        -18.38046       21.14603       -4.95012
C        -17.38600       20.66196       -4.10567
H          0.73053        2.08544       -2.78336
H          5.34364        0.15555       -2.54371
H          4.79832       -1.35636       -4.40440
H          3.24552       -2.09086       -6.16581
H          0.99923       -1.06330       -6.36898
H          0.27703        0.66875       -4.77651
H          5.20304        5.01412        0.14051
H          2.51916        5.88441        1.96478
H         -1.37691        8.27139        3.40043
H         -0.84955        7.66311        5.89132
H          1.46336        7.36006        7.43727
H          2.96164        7.05254        6.54547
H          1.69810        5.81298        6.60917
H          1.48065        7.17549       -3.78683
H          1.41063        8.35899       -6.11730
H          1.00991       10.81044       -7.14819
H          1.38079       12.10944       -6.00704
H         -0.28808       11.53637       -6.19086
H         -1.02563       11.06363       -1.79061
H         -6.15434       17.42471        1.73110
H         -5.28984       19.43160        2.14331
H         -4.69584       20.64069        4.37201
H         -6.33036       21.84271        6.49020
H         -7.75180       22.67178        5.83124
H         -6.13151       23.18314        5.34772
H         -8.71213       17.25453       -3.78924
H        -10.56226       16.73006       -5.53123
H        -13.16440       17.79883       -6.02602
H        -14.02069       18.36016       -4.58626
H        -13.69850       16.63220       -4.79924
H        -11.69592       20.74188       -1.66700
H        -11.58661       24.02077        0.10637
H        -15.45737       19.98385       -2.35576
H        -16.51476       24.87589       -2.47067
H        -18.28620       24.43777       -4.12283
H        -19.48549       22.87453       -5.59740
H        -18.90790       20.46375       -5.61312
H        -17.14976       19.59967       -4.12255
