100

C         -4.21487        2.75783        3.94090
C         -5.23378        3.23116        3.19003
C         -6.33031        3.93339        3.76501
N         -7.21590        4.50994        4.24375
C         -5.30409        2.97709        1.78664
N         -5.36081        2.76093        0.64864
C         -4.10057        2.77074        5.41316
C         -3.37279        1.63190        5.79639
C         -3.02975        1.36838        7.10938
C         -3.32829        2.34556        8.06917
C         -3.98281        3.55402        7.68185
C         -4.40266        3.74246        6.35203
C         -4.15112        4.57191        8.63119
C         -3.70133        4.40614        9.94169
C         -3.10456        3.20980       10.32934
C         -2.92355        2.18354        9.40105
C         -2.81995        0.95971        4.59467
O         -2.17374       -0.06403        4.55310
C         -3.10503        1.92250        3.47768
C         -2.13473        2.13065        2.56965
C         -1.95848        3.34682        1.83300
C         -1.42886        3.51528        0.54792
C         -1.42078        4.87555        0.15865
C         -1.92343        5.68062        1.15215
S         -2.26348        4.90926        2.57176
C         -2.02926        6.99847        0.67266
C         -1.57321        7.04401       -0.62282
C         -1.09634        5.70814       -1.00262
C         -0.45130        5.34098       -2.12564
C         -0.16255        6.27484       -3.15646
N          0.07674        7.04605       -3.99072
C          0.02659        4.01288       -2.30683
N          0.42656        2.93227       -2.43795
C         -1.75056        8.33248       -1.18046
C         -2.34451        9.21505       -0.26568
S         -2.65424        8.41484        1.25304
C         -2.77054       10.62159       -0.44482
C         -3.21001       11.08702       -1.68748
F         -3.24294       10.26421       -2.74806
C         -3.64983       12.40487       -1.86947
F         -4.10333       12.73487       -3.08872
C         -3.64993       13.34114       -0.82470
C         -3.21342       12.87437        0.41828
C         -2.78415       11.55377        0.60284
F         -2.36229       11.21347        1.83046
F         -3.17890       13.69608        1.47942
C         -4.08250       14.74544       -1.00141
C         -4.65491       15.62761       -0.07441
C         -4.94661       16.88016       -0.66125
C         -4.57581       16.91088       -1.98670
S         -3.85154       15.53198       -2.54204
C         -4.95017       18.14888       -2.54474
C         -5.55666       18.90038       -1.56807
C         -5.55791       18.16309       -0.30729
C         -6.00617       18.57875        0.89277
C         -6.56969       19.87588        1.08118
N         -7.05044       20.92178        1.23980
C         -5.94782       17.74347        2.03856
N         -5.90886       17.05304        2.97049
C         -6.04068       20.11369       -2.08277
C         -5.74284       20.26250       -3.44088
S         -4.89683       18.85867       -4.04543
C         -6.09357       21.30225       -4.35820
C         -6.17135       22.60450       -4.03455
C         -6.78368       23.72647       -4.79031
C         -6.77821       23.91147       -6.13215
C         -7.30528       25.08216       -6.74469
N         -7.73927       26.03700       -7.24495
C         -6.18781       22.97655       -7.02622
N         -5.71495       22.20157       -7.75280
C         -7.25642       24.70070       -3.76025
C         -6.68361       24.34775       -2.53147
C         -5.84382       23.16060       -2.67952
O         -5.02720       22.77730       -1.86952
C         -6.93817       24.99688       -1.33649
C         -7.81758       26.07974       -1.35873
C         -8.41120       26.48170       -2.58896
C         -8.13097       25.77824       -3.78411
C         -9.28408       27.57957       -2.58258
C         -9.57411       28.25837       -1.39621
C         -9.00140       27.84773       -0.19558
C         -8.12717       26.76295       -0.17620
H         -2.45750        0.47879        7.35648
H         -4.87384        4.67799        6.06172
H         -4.60779        5.51993        8.35245
H         -3.81240        5.21556       10.65921
H         -2.76155        3.08125       11.35299
H         -2.43608        1.26565        9.72355
H         -1.34114        1.38961        2.46865
H         -1.11933        2.67399       -0.06166
H         -1.50077        8.62195       -2.19548
H         -4.86286       15.34767        0.95232
H         -6.58775       20.85642       -1.51744
H         -6.39642       20.95775       -5.34344
H         -6.47949       24.64443       -0.41660
H         -8.63223       26.08909       -4.69568
H         -9.74851       27.92180       -3.50528
H        -10.25086       29.10856       -1.41007
H         -9.23406       28.37264        0.72764
H         -7.69183       26.45469        0.77269
