98

C         -4.11930        2.80305        3.76928
C         -5.11214        3.00592        2.87509
C         -6.34054        3.62737        3.23916
N         -7.32485        4.16242        3.54362
C         -5.01957        2.52247        1.53715
N         -4.96963        2.10470        0.45573
C         -4.21745        2.96024        5.23368
C         -3.42531        1.95688        5.81586
C         -3.32168        1.79096        7.18363
C         -3.95567        2.73342        8.00760
C         -4.66992        3.82555        7.42916
C         -4.81935        3.91639        6.03359
C         -5.19554        4.81915        8.26770
C         -5.04879        4.73342        9.65250
C         -4.39528        3.64261       10.21881
C         -3.85317        2.64831        9.40274
C         -2.60540        1.29085        4.77106
O         -1.82992        0.37175        4.91600
C         -2.85043        2.11083        3.53479
C         -1.79233        2.40401        2.75320
C         -1.67221        3.59572        1.96166
C         -0.98400        3.79675        0.75375
C         -1.06918        5.14318        0.31477
C         -1.78893        5.90128        1.20338
S         -2.27445        5.12335        2.57357
C         -1.93226        7.20422        0.70291
C         -1.28949        7.29767       -0.50692
C         -0.65539        6.00442       -0.80404
C          0.15667        5.69850       -1.83560
C          0.49785        6.66179       -2.82237
N          0.76582        7.46138       -3.61728
C          0.74223        4.40573       -1.96125
N          1.21967        3.35684       -2.05046
C         -1.47165        8.58235       -1.07564
C         -2.25809        9.39824       -0.25236
S         -2.72676        8.56503        1.20220
C         -2.74334       10.76637       -0.46679
C         -3.01181       11.27732       -1.72466
N         -3.48549       12.52350       -1.96413
C         -3.70013       13.28786       -0.87921
N         -3.47289       12.90754        0.38772
C         -3.00037       11.65735        0.56113
C         -4.21396       14.64175       -1.10506
C         -4.50256       15.28648       -2.31323
C         -4.96435       16.60198       -2.09370
C         -5.01888       16.89839       -0.74952
S         -4.53879       15.67730        0.25979
C         -5.45620       18.22728       -0.58606
C         -5.66457       18.77434       -1.82809
C         -5.39426       17.77347       -2.85839
C         -5.52679       17.90343       -4.19318
C         -5.95984       19.12018       -4.79331
N         -6.29061       20.11166       -5.29689
C         -5.24025       16.83113       -5.07980
N         -5.00584       15.96042       -5.81132
C         -6.03030       20.12888       -1.73661
C         -6.13682       20.55831       -0.41048
S         -5.73694       19.25231        0.68823
C         -6.42396       21.84130        0.15587
C         -7.18566       22.79614       -0.40456
C         -7.35752       24.21384        0.00859
C         -7.39928       24.69984        1.27315
C         -7.69602       26.06197        1.56530
N         -7.93700       27.17184        1.80410
C         -7.22165       23.86780        2.41714
N         -7.06554       23.18908        3.34443
C         -7.67466       24.97248       -1.24106
C         -7.96866       24.04314       -2.24639
C         -7.87869       22.67890       -1.72796
O         -8.35716       21.70080       -2.26233
C         -8.26613       24.37799       -3.55522
C         -8.29991       25.73020       -3.88905
C         -8.03604       26.71266       -2.89221
C         -7.70314       26.32076       -1.57335
C         -8.11743       28.06681       -3.25102
C         -8.43954       28.44421       -4.55760
C         -8.66902       27.47611       -5.53119
C         -8.59690       26.12494       -5.19959
H         -2.70968        0.99214        7.59221
H         -5.35433        4.75792        5.60085
H         -5.71164        5.68191        7.85007
H         -5.44612        5.52000       10.28961
H         -4.29410        3.57195       11.29902
H         -3.33460        1.81306        9.86905
H         -0.88889        1.80033        2.84394
H         -0.48045        2.98818        0.23543
H         -1.08167        8.91877       -2.02933
H         -2.86906       10.67890       -2.62089
H         -2.83264       11.40159        1.60424
H         -4.36135       14.79883       -3.27134
H         -6.20223       20.77827       -2.58358
H         -5.90558       22.04417        1.08940
H         -8.45607       23.59677       -4.28665
H         -7.46712       27.09496       -0.84973
H         -7.94272       28.84630       -2.51182
H         -8.51197       29.49780       -4.81588
H         -8.91156       27.77094       -6.54909
H         -8.78096       25.38167       -5.97338
