105

C          1.71463        2.06200        3.29506
C          1.19058        1.09760        4.07952
C          1.72568        0.80230        5.36459
N          2.18137        0.56042        6.40389
C          0.13193        0.25775        3.62220
N         -0.73814       -0.40799        3.26019
C          2.85889        2.96188        3.58658
C          3.42526        3.33486        2.35618
C          4.39059        4.30778        2.21531
C          4.78505        4.98786        3.36378
C          4.24245        4.63149        4.63655
C          3.28275        3.59821        4.74214
C          4.64594        5.36736        5.76008
C          5.53616        6.43800        5.63265
C          6.04200        6.78850        4.38368
C          5.67353        6.06214        3.25496
C          2.66551        2.75830        1.24142
O          3.02182        2.69185        0.08707
C          1.39274        2.31937        1.88431
C          0.19840        2.64490        1.37387
C         -0.01463        3.29533        0.11064
C         -0.64917        4.46165       -0.06513
C         -1.10957        4.43848       -1.41275
C         -0.48229        3.26256       -1.97126
N          0.15325        2.55654       -1.06815
O         -0.61558        3.07385       -3.28834
C          0.00261        1.92063       -3.86010
C         -2.13020        5.30007       -1.47343
N         -2.21828        6.10966       -0.32689
C         -1.32429        5.61197        0.49153
O         -1.00390        6.05290        1.71255
C         -1.81114        7.14528        2.16986
C         -3.28058        5.17599       -2.37447
C         -3.97398        6.27661       -2.88920
C         -5.24862        6.13667       -3.56058
N         -5.89824        7.25918       -3.95088
C         -5.31054        8.45932       -3.73468
C         -4.08228        8.57059       -3.12959
N         -3.40545        7.48828       -2.71183
F         -3.52763        9.77417       -2.92500
F         -5.96198        9.56251       -4.12801
C         -5.83001        4.86055       -3.80528
C         -5.08154        3.72428       -3.39544
C         -3.82911        3.88440       -2.60954
N         -3.37083        2.70721       -2.14507
S         -4.27705        1.51011       -2.82116
N         -5.35065        2.43356       -3.66255
C         -7.10264        4.62782       -4.51295
C         -7.97081        3.60440       -4.33482
C         -8.89128        3.71102       -5.42478
C         -8.49530        4.88879       -6.13748
N         -7.42855        5.44118       -5.62359
O         -9.20213        5.21891       -7.22206
C         -8.63716        6.19194       -8.09705
C         -9.66801        2.63659       -5.41477
N         -9.42732        1.79107       -4.35006
C         -8.44959        2.37265       -3.69277
O         -7.93652        1.93108       -2.53955
C         -8.49050        0.70087       -2.03854
C        -10.59591        2.19984       -6.40594
C        -11.67020        2.87135       -6.83537
C        -12.68430        2.47834       -7.82627
C        -12.51717        1.61417       -8.86395
C        -13.53259        1.35988       -9.82573
N        -14.35173        1.14327      -10.62066
C        -11.28975        0.94164       -9.12696
N        -10.29505        0.39219       -9.35427
C        -13.87007        3.34940       -7.57827
C        -13.50659        4.34856       -6.66373
C        -12.14749        4.13329       -6.16977
O        -11.60361        4.82521       -5.33368
C        -14.35364        5.35473       -6.23266
C        -15.65745        5.36260       -6.72285
C        -16.08058        4.33950       -7.61872
C        -15.18011        3.33518       -8.03411
C        -17.40488        4.35115       -8.07464
C        -18.29093        5.35231       -7.67274
C        -17.86832        6.35671       -6.80622
C        -16.55860        6.36035       -6.32975
H          4.74032        4.58238        1.22455
H          2.83096        3.38200        5.70695
H          4.25725        5.12790        6.74774
H          5.82854        7.00803        6.51090
H          6.72011        7.63212        4.28402
H          6.06816        6.35792        2.28458
H         -0.69785        2.56555        1.98677
H          0.49416        2.23240       -4.78627
H         -0.77898        1.19850       -4.11146
H          0.74654        1.45543       -3.20893
H         -1.51741        7.37959        3.19647
H         -2.86704        6.85583        2.17349
H         -1.65944        8.03893        1.55366
H         -9.44506        6.82492       -8.47441
H         -8.19616        5.65406       -8.94028
H         -7.88365        6.82537       -7.62267
H         -7.66838        0.03631       -1.76001
H         -9.11838        0.15982       -2.75592
H         -9.08711        0.92240       -1.14969
H        -10.35209        1.20839       -6.77208
H        -14.00019        6.09475       -5.51969
H        -15.54361        2.55757       -8.69830
H        -17.76193        3.57887       -8.75405
H        -19.31437        5.34915       -8.03995
H        -18.55848        7.13790       -6.49852
H        -16.24732        7.15085       -5.64916
