105

C          3.58345        3.29617        2.69556
C          2.44805        3.11621        3.40678
C          2.42184        3.20673        4.82494
N          2.40694        3.29966        5.98320
C          1.22843        2.71703        2.78286
N          0.23172        2.37686        2.29339
C          4.94630        3.34608        3.26266
C          5.79213        2.62887        2.40535
C          7.13155        2.40959        2.70083
C          7.65513        3.00133        3.86557
C          6.82489        3.83100        4.67623
C          5.46288        3.98586        4.37328
C          7.37690        4.49831        5.77809
C          8.71770        4.32471        6.11632
C          9.52068        3.47464        5.36128
C          8.99732        2.82298        4.24032
C          5.06895        2.31619        1.14478
O          5.49447        1.69757        0.19336
C          3.74932        3.05369        1.27010
C          3.20272        3.60436        0.17017
C          2.26218        4.75069       -0.02026
C          1.86565        5.18897       -1.28540
O          2.22245        4.52540       -2.44082
C          3.57123        4.77505       -2.84924
C          0.97450        6.29743       -1.45833
C          0.40678        7.08183       -0.41024
C          0.80977        6.58156        0.85268
C          1.75398        5.51926        1.02528
O          0.39638        7.06322        2.07091
C         -0.87307        6.53353        2.45782
C         -0.56795        8.27736       -0.68806
C         -1.08991        9.22829        0.24990
C         -2.20248       10.16418       -0.01546
N         -2.63874       10.98974        0.95673
C         -2.09700       10.88607        2.18656
C         -1.05018       10.04571        2.43696
N         -0.52228        9.27446        1.46492
F         -0.58171        9.89787        3.68429
F         -2.68195       11.55617        3.18962
C         -2.86668       10.27581       -1.25231
C         -2.20511        9.55581       -2.28113
C         -1.05274        8.58053       -2.00903
N         -0.57369        8.09247       -3.16598
S         -1.41723        8.73174       -4.41947
N         -2.50291        9.63985       -3.58924
C         -4.09950       11.10684       -1.55088
C         -5.32257       10.98207       -0.85915
O         -5.53095        9.92627        0.00236
C         -5.36892       10.27579        1.37071
C         -6.47926       11.73720       -1.20268
C         -6.53749       12.56460       -2.33558
C         -5.31982       12.72091       -3.02885
C         -4.14142       12.01897       -2.63051
O         -5.19146       13.38531       -4.22830
C         -5.42063       14.78986       -4.18847
C         -7.81958       13.25297       -2.70992
C         -9.11157       12.84885       -2.68121
C        -10.36769       13.59883       -3.03728
C        -10.58807       14.94412       -2.96206
C        -11.86873       15.55757       -3.19200
N        -12.89553       16.06413       -3.37396
C         -9.56371       15.85543       -2.57776
N         -8.73252       16.59915       -2.27561
C        -11.42902       12.57981       -3.29404
C        -10.93366       11.33094       -2.91119
C         -9.55425       11.43168       -2.42878
O         -8.95442       10.50300       -1.93305
C        -11.64657       10.14555       -3.03002
C        -12.93144       10.19445       -3.57655
C        -13.48148       11.44511       -3.96475
C        -12.71683       12.62948       -3.82556
C        -14.78200       11.47048       -4.49676
C        -15.51134       10.29102       -4.66916
C        -14.95492        9.06674       -4.31119
C        -13.67421        9.01899       -3.76163
H          7.75310        1.82916        2.02728
H          4.83786        4.62142        4.99508
H          6.76665        5.16495        6.38457
H          9.13126        4.84917        6.97434
H         10.56065        3.32563        5.64149
H          9.65206        2.17455        3.66182
H          3.58392        3.20033       -0.76602
H          3.58433        4.87234       -3.93894
H          4.19994        3.91215       -2.60683
H          4.00082        5.68132       -2.40982
H          0.74438        6.49338       -2.49829
H          2.06070        5.33718        2.04677
H         -1.01468        6.77528        3.51662
H         -0.92766        5.44781        2.34128
H         -1.68601        7.00674        1.90011
H         -6.28697       10.06471        1.92400
H         -5.08892       11.32188        1.53530
H         -4.59967        9.61005        1.77355
H         -7.36929       11.59380       -0.59558
H         -3.25043       12.15841       -3.24259
H         -4.53554       15.30261       -4.57750
H         -5.63088       15.18279       -3.18889
H         -6.25494       15.01620       -4.86149
H         -7.63092       14.25781       -3.07124
H        -11.19110        9.20886       -2.72260
H        -13.16336       13.55871       -4.16783
H        -15.24244       12.41272       -4.78792
H        -16.51360       10.32778       -5.08949
H        -15.51646        8.14758       -4.45939
H        -13.25606        8.05168       -3.48906
