107

C          0.92027        1.14352        1.47463
C         -0.24835        0.91416        0.83590
C         -0.32952        0.07797       -0.31056
N         -0.39134       -0.60258       -1.24902
C         -1.48753        1.41010        1.34002
N         -2.50110        1.79180        1.75680
C          2.21317        0.47666        1.23152
C          2.88082        0.37540        2.46406
C          4.12230       -0.21817        2.59432
C          4.76519       -0.64995        1.42492
C          4.14430       -0.45626        0.15376
C          2.85203        0.08979        0.06734
C          4.84879       -0.79149       -1.00999
C          6.12994       -1.33751       -0.93360
C          6.71673       -1.57113        0.30708
C          6.04053       -1.22851        1.47927
C          2.16120        1.16507        3.49390
O          2.45363        1.29177        4.66247
C          1.09375        1.88453        2.72148
C          0.80434        3.15485        3.04557
C          0.29477        4.09971        2.10003
C          0.55579        4.22484        0.72800
C         -0.10677        5.33265        0.16577
C         -0.79760        6.03535        1.12252
S         -0.71959        5.40194        2.65596
C         -1.33698        7.19197        0.52559
C         -0.97226        7.23537       -0.79986
C         -0.22916        6.01421       -1.12553
C          0.18772        5.57398       -2.33010
C         -0.04052        6.32179       -3.51802
N         -0.22113        6.93119       -4.48924
C          0.83640        4.31112       -2.46971
N          1.36856        3.27995       -2.52163
C         -1.38660        8.44643       -1.40649
C         -2.06578        9.27963       -0.50203
S         -2.26925        8.45779        1.03274
C         -2.62799       10.64956       -0.67811
C         -2.68108       11.63438        0.33917
C         -3.30441       12.92221        0.15295
N         -3.37801       13.76154        1.21330
C         -2.82700       13.42237        2.40518
C         -2.20276       12.22091        2.56636
N         -2.12081       11.34471        1.53697
C         -1.62749       11.79418        3.80599
N         -1.17390       11.46555        4.82290
C         -2.92238       14.39824        3.44789
N         -2.97701       15.17450        4.30936
C         -3.84445       13.34662       -1.09175
C         -3.77280       12.39824       -2.15534
C         -3.16616       11.02648       -1.94072
N         -3.21878       10.26609       -3.04842
S         -3.90715       11.16859       -4.24628
N         -4.19435       12.56994       -3.42077
C         -4.45480       14.69051       -1.34037
C         -5.48696       15.08610       -2.21032
C         -5.78088       16.47157       -2.09975
C         -4.97593       17.07527       -1.16394
S         -3.82595       16.09357       -0.49633
C         -5.32044       18.43808       -1.05827
C         -6.33789       18.71167       -1.94338
C         -6.67916       17.48522       -2.67203
C         -7.57730       17.34236       -3.66618
C         -8.35814       18.43582       -4.13493
N         -9.00057       19.32427       -4.51759
C         -7.78338       16.09178       -4.30883
N         -7.95537       15.06943       -4.83080
C         -6.71481       20.07306       -1.89098
C         -5.92156       20.77996       -0.98599
S         -4.80740       19.73146       -0.15174
C         -5.92492       22.16900       -0.67343
C         -5.11354       23.05171       -1.28151
C         -4.87350       24.48140       -0.96889
C         -5.77207       25.37326       -0.48317
C         -5.47316       26.75429       -0.30426
N         -5.23056       27.87869       -0.15084
C         -7.11441       25.00862       -0.17221
N         -8.20418       24.70088        0.08154
C         -3.49936       24.79345       -1.46764
C         -3.07277       23.72895       -2.27248
C         -4.07860       22.66030       -2.30131
O         -4.04271       21.68690       -3.02426
C         -1.83352       23.67770       -2.89008
C         -0.95139       24.74153       -2.68687
C         -1.34458       25.83893       -1.87049
C         -2.62041       25.85033       -1.25977
C         -0.43894       26.89531       -1.68167
C          0.82586       26.87094       -2.27478
C          1.20816       25.78899       -3.06213
C          0.32465       24.73012       -3.26781
H          4.60012       -0.27965        3.56793
H          2.39627        0.25202       -0.90660
H          4.41144       -0.61703       -1.99166
H          6.66908       -1.58156       -1.84563
H          7.70978       -2.01001        0.36271
H          6.52689       -1.40709        2.43614
H          1.10950        3.53894        4.01958
H          1.22472        3.56184        0.19441
H         -1.18540        8.73302       -2.43234
H         -5.99341       14.39280       -2.87173
H         -7.47760       20.55837       -2.48804
H         -6.57545       22.45613        0.14592
H         -1.56221       22.81477       -3.49218
H         -2.87282       26.68719       -0.61580
H         -0.70944       27.75366       -1.06924
H          1.51446       27.69823       -2.12006
H          2.19510       25.76802       -3.51785
H          0.64435       23.89211       -3.88426
