87

C          0.53649        0.53633       -0.63667
C         -0.77914        0.24126       -0.72823
C         -1.34296       -0.33772       -1.89882
N         -1.79003       -0.78700       -2.87379
C         -1.64419        0.34342        0.40400
N         -2.33958        0.36708        1.32992
C          1.60116        0.11214       -1.56399
C          2.75425       -0.14474       -0.79923
C          3.93318       -0.60205       -1.35740
C          3.99345       -0.70933       -2.75403
C          2.86511       -0.34383       -3.54970
C          1.65765        0.03924       -2.94318
C          2.98273       -0.34198       -4.94552
C          4.17732       -0.71788       -5.55838
C          5.26129       -1.12401       -4.78490
C          5.17074       -1.12111       -3.39193
C          2.55479        0.33446        0.59098
O          3.33806        0.27097        1.51345
C          1.23107        1.03895        0.54200
C          1.06841        2.19902        1.19641
C          0.15413        3.24869        0.80731
C          0.13038        3.91784       -0.36626
C         -0.74633        5.08560       -0.42108
C         -1.43857        5.39108        0.70282
Si        -1.01673        4.06587        2.03401
C         -2.40871        6.49822        0.92412
C         -2.63195        7.14438        2.16652
C         -3.63496        8.17551        2.36181
N         -3.81926        8.72870        3.58111
C         -3.03701        8.30232        4.59509
C         -2.06435        7.35024        4.40691
N         -1.85729        6.77583        3.20450
F         -1.28952        6.95558        5.42663
F         -3.22654        8.83378        5.80984
C         -4.43815        8.64365        1.30809
C         -4.21996        8.07108        0.02586
C         -3.19839        6.97607       -0.17003
N         -3.16700        6.54638       -1.44581
S         -4.25493        7.43914       -2.30895
N         -4.85405        8.40519       -1.11232
C         -5.49222        9.65369        1.45033
C         -6.79590        9.44008        1.73847
C         -7.63380       10.63833        1.80346
C         -7.00517       11.81155        1.58273
Si        -5.16762       11.49238        1.23093
C         -7.55139       13.14888        1.60357
C         -8.12604       13.76746        2.64816
C         -8.78548       15.09964        2.73041
C         -8.53155       16.19405        1.97094
C         -9.15132       17.46055        2.19464
N         -9.65501       18.48787        2.36799
C         -7.56970       16.19123        0.91668
N         -6.78713       16.18860        0.06082
C         -9.65735       15.06399        3.94602
C         -9.34153       13.91382        4.68017
C         -8.33694       13.10740        3.98397
O         -7.81257       12.11846        4.44984
C         -9.94627       13.57270        5.88033
C        -10.93946       14.41570        6.38214
C        -11.30694       15.58111        5.65405
C        -10.66301       15.89039        4.43312
C        -12.31609       16.40744        6.17260
C        -12.94661       16.09820        7.38028
C        -12.58177       14.95641        8.08758
C        -11.58461       14.11805        7.59088
H          4.79552       -0.80074       -0.72783
H          0.80685        0.32222       -3.55528
H          2.14862       -0.02924       -5.57138
H          4.26024       -0.69350       -6.64200
H          6.18641       -1.43042       -5.26717
H          6.03659       -1.42963       -2.80947
H          1.78733        2.47041        1.97334
H          0.76687        3.69516       -1.21644
H         -0.77976        5.66500       -1.33762
H         -2.20122        3.23418        2.34565
H         -0.31129        4.51045        3.26147
H         -7.23471        8.46609        1.91874
H         -8.68558       10.55006        2.04920
H         -4.28291       12.13488        2.23479
H         -4.73991       11.88174       -0.13707
H         -7.48023       13.63491        0.63646
H         -9.65169       12.66215        6.39490
H        -10.99085       16.77466        3.89446
H        -12.62074       17.30735        5.64178
H        -13.72372       16.75149        7.76953
H        -13.07305       14.71707        9.02749
H        -11.31563       13.22844        8.15752
