107

C          2.24377        4.06708       -5.97915
C          1.68215        4.24805       -7.19489
C          0.79670        3.28832       -7.76523
N          0.08990        2.50517       -8.24769
C          2.10220        5.32366       -8.03307
N          2.47418        6.19545       -8.70190
C          2.27693        2.79106       -5.22876
C          3.62470        2.37893       -5.25028
C          4.11220        1.37605       -4.43327
C          3.41341        1.16301       -3.25032
C          2.17362        1.83024       -3.02269
C          1.54312        2.53609       -4.07386
C          1.69719        1.89652       -1.70434
C          2.41249        1.30613       -0.65658
C          3.55553        0.55530       -0.91925
C          4.03920        0.45869       -2.21960
C          4.44750        3.64828       -5.38800
O          5.65023        3.75733       -5.28693
C          3.42152        4.76109       -5.49012
C          3.53838        5.91341       -4.80512
C          2.43494        6.78695       -4.50793
C          1.93576        7.89532       -5.21066
C          0.87038        8.54295       -4.52271
C          0.61224        7.90570       -3.33535
S          1.54519        6.56818       -3.01763
C         -0.39507        8.60759       -2.64781
C         -0.79966        9.69917       -3.37711
C         -0.05503        9.68881       -4.64816
C         -0.21947       10.50686       -5.70452
C         -1.23161       11.49874       -5.72064
N         -2.08006       12.29843       -5.72842
C          0.59750       10.38596       -6.86542
N          1.27679       10.28456       -7.79259
C         -1.73773       10.49361       -2.64711
C         -1.95218        9.97017       -1.37278
S         -1.12978        8.41892       -1.18964
C         -2.74961       10.41105       -0.25762
C         -3.91993       11.12093       -0.04132
C         -4.59126       10.55325        1.12323
N         -5.83537       10.88823        1.54379
C         -6.26801       12.01029        0.90822
C         -7.43212       12.65228        1.55982
O         -8.18522       12.05922        2.32113
C         -7.62366       14.09033        1.32456
C         -6.93739       14.72608        0.37472
C         -5.96843       14.02751       -0.50434
O         -5.45797       14.64363       -1.43046
C         -5.59153       12.63033       -0.15536
N         -4.45466       12.13298       -0.78427
C         -3.77773        9.68299        1.80505
S         -2.16508       10.06534        1.35231
C         -4.02709        8.68871        2.79344
C         -3.14639        8.29946        3.79517
C         -3.59896        7.13356        4.41952
C         -4.81290        6.72344        3.92012
S         -5.42576        7.67261        2.70564
C         -5.19228        5.54664        4.58817
C         -4.20841        5.20565        5.48807
C         -3.15074        6.21135        5.45125
C         -2.03664        6.30544        6.20097
C         -1.75043        5.36901        7.23121
N         -1.52373        4.61841        8.08049
C         -1.10347        7.36405        6.02317
N         -0.35038        8.23482        5.86287
C         -4.51933        4.00557        6.15357
C         -5.74440        3.47904        5.72306
S         -6.51565        4.55655        4.59157
C         -6.38672        2.31407        6.23860
C         -7.19584        1.46046        5.58819
C         -8.00652        0.37730        6.19571
C         -7.63493       -0.46223        7.19310
C         -8.43900       -1.55795        7.61407
N         -9.09977       -2.44799        7.96074
C         -6.36795       -0.35951        7.83987
N         -5.33761       -0.25517        8.36043
C         -9.21402        0.23466        5.33644
C         -8.96070        0.87995        4.11957
C         -7.64054        1.52710        4.15157
O         -7.03959        1.93228        3.17991
C         -9.86809        0.92290        3.07368
C        -11.11191        0.30760        3.25602
C        -11.41175       -0.32675        4.49564
C        -10.45632       -0.35088        5.53330
C        -12.66950       -0.92391        4.66615
C        -13.61455       -0.90680        3.63899
C        -13.31773       -0.29006        2.42711
C        -12.07529        0.31595        2.23663
H          5.13770        1.03455       -4.54790
H          0.61919        3.07972       -3.88322
H          0.81925        2.49224       -1.46157
H          2.09074        1.45040        0.37203
H          4.10629        0.08994       -0.10575
H          4.96371       -0.08635       -2.40028
H          4.48666        6.11960       -4.30563
H          2.36116        8.20027       -6.15908
H         -2.19360       11.42181       -2.97059
H         -8.34120       14.59139        1.96608
H         -7.06602       15.78993        0.20491
H         -2.21371        8.81441        3.98694
H         -3.91164        3.51872        6.90759
H         -6.20134        2.16924        7.29934
H         -9.61307        1.43978        2.15245
H        -10.72229       -0.81838        6.47661
H        -12.92658       -1.41516        5.60286
H        -14.58342       -1.37801        3.78592
H        -14.05475       -0.28003        1.62778
H        -11.86676        0.79495        1.28189
