101

C          4.94660        1.23354        9.44676
C          6.14844        0.77395        9.86364
C          6.29123       -0.46407       10.55380
N          6.39425       -1.46664       11.12966
C          7.36557        1.46953        9.60270
N          8.36077        2.03121        9.41649
C          3.63963        0.52611        9.57830
C          2.77142        1.02612        8.59972
C          1.46745        0.59493        8.43093
C          0.95912       -0.31804        9.35584
C          1.78344       -0.77943       10.42246
C          3.13375       -0.37047       10.50958
C          1.21529       -1.61267       11.39762
C         -0.12655       -1.99375       11.32054
C         -0.91593       -1.56780       10.25605
C         -0.37536       -0.73732        9.27586
C          3.36775        2.18819        7.93058
O          2.86056        2.81447        7.02429
C          4.66090        2.44501        8.65290
C          5.21327        3.66657        8.74279
C          4.54425        4.88346        8.31502
C          4.93460        5.76033        7.38246
C          4.20507        6.96656        7.06684
C          4.72734        7.66719        6.05087
C          5.88896        7.03955        5.45276
S          6.34274        5.59713        6.38373
C          6.50816        7.42270        4.32073
C          6.23398        8.57898        3.48777
C          6.88268        8.57134        2.30906
C          7.67356        7.37533        2.09470
S          7.76256        6.46653        3.58085
C          8.15662        6.97977        0.89905
C          8.66189        5.63110        0.56298
C          9.27186        4.74863        1.46181
C          9.38156        3.36427        1.25047
F          9.65436        2.66586        2.36139
C          9.13049        2.70519        0.03253
C          8.64626        3.57694       -0.98981
C          8.38927        5.06350       -0.71629
N          7.86969        5.70009       -1.78161
S          7.77042        4.59292       -3.00831
N          8.33255        3.23138       -2.25303
C          9.25598        1.25709       -0.25035
C         10.11278        0.36878        0.28346
C         10.22429       -1.02296       -0.10377
C         11.24827       -1.67270        0.47877
C         12.02119       -0.84536        1.38561
S         11.30012        0.74341        1.48641
C         13.17980       -1.12173        2.01056
C         14.01218       -2.29681        1.86077
C         15.25461       -2.13246        2.34701
C         15.47265       -0.83398        2.94705
S         13.97825        0.04178        3.07199
C         16.64744       -0.33521        3.35873
C         16.80947        0.99672        3.92781
C         17.28284        1.26955        5.15309
C         17.37586        2.54799        5.90689
C         17.31822        3.81059        5.41090
C         17.46958        4.97608        6.21865
N         17.59829        5.93238        6.86427
C         17.15112        4.09510        4.02312
N         17.02990        4.34845        2.89834
C         17.65004        2.17368        7.33353
C         17.83325        0.78727        7.40495
C         17.68105        0.16598        6.09006
O         17.86853       -1.01064        5.85580
C         18.11529        0.09767        8.57392
C         18.23964        0.82827        9.75515
C         18.06254        2.23821        9.73048
C         17.75348        2.89646        8.51717
C         18.20733        2.95546       10.92807
C         18.52055        2.30122       12.12173
C         18.68409        0.91917       12.13977
C         18.54148        0.18517       10.96331
H          0.85176        1.02143        7.64379
H          3.73325       -0.71975       11.34557
H          1.80769       -1.95881       12.24245
H         -0.55700       -2.62277       12.09586
H         -1.95826       -1.87049       10.19466
H         -1.01286       -0.40279        8.45963
H          6.10181        3.84937        9.34227
H          3.60913        5.07624        8.84035
H          3.31178        7.25929        7.60070
H          4.29012        8.58028        5.67514
H          5.55765        9.36706        3.78543
H          6.77041        9.33690        1.55375
H          8.00710        7.63164        0.03938
H          9.60757        5.08806        2.43815
H          8.59014        0.90426       -1.03685
H          9.55286       -1.47845       -0.81878
H         11.48355       -2.70970        0.28760
H         13.68421       -3.18920        1.34799
H         16.03632       -2.87582        2.27915
H         17.54930       -0.93742        3.27744
H         16.41049        1.77770        3.28618
H         18.23613       -0.98195        8.55016
H         17.60431        3.96982        8.55348
H         18.08498        4.03700       10.94282
H         18.63728        2.87305       13.03896
H         18.92516        0.41060       13.06974
H         18.67280       -0.89457       10.99705
