104

C         -3.35486        3.39518        4.57595
C         -4.45596        3.63855        3.83110
C         -5.56489        4.37043        4.34464
N         -6.45535        4.97511        4.77345
C         -4.59259        3.11295        2.51290
N         -4.70734        2.67201        1.44431
C         -3.14949        3.70868        6.00316
C         -2.30166        2.72587        6.53891
C         -1.87160        2.74842        7.85283
C         -2.20685        3.86669        8.63137
C         -2.97577        4.92832        8.06624
C         -3.47799        4.82314        6.75691
C         -3.17997        6.09708        8.81370
C         -2.66008        6.21852       10.10267
C         -1.95537        5.16231       10.67304
C         -1.73320        3.99238        9.94454
C         -1.75555        1.88134        5.44441
O         -1.01374        0.92930        5.54742
C         -2.19857        2.58200        4.18991
C         -1.30037        2.72519        3.19512
C         -1.28846        3.83677        2.28584
C         -0.86405        3.89417        0.94985
C         -1.03890        5.19096        0.39814
C         -1.55470        6.05646        1.32992
S         -1.68568        5.44990        2.85641
C         -1.80890        7.30101        0.73028
C         -1.41974        7.25537       -0.58447
C         -0.87491        5.91832       -0.86837
C         -0.31950        5.47333       -2.01140
C         -0.19999        6.30905       -3.15601
N         -0.09279        6.98982       -4.08860
C          0.21025        4.15779       -2.11898
N          0.65255        3.08774       -2.19718
C         -1.67534        8.49257       -1.22751
C         -2.28509        9.41960       -0.36619
S         -2.51302        8.71408        1.22010
C         -2.74710       10.82177       -0.60729
C         -2.72894       11.73579        0.45970
C         -3.16134       13.04611        0.30044
C         -3.59895       13.51422       -0.94407
C         -3.62069       12.62219       -2.03719
N         -4.03853       13.05585       -3.25246
C         -4.08388       12.17776       -4.26990
C         -3.70732       10.87158       -4.10416
N         -3.26730       10.40245       -2.91844
C         -3.20589       11.26102       -1.86741
C         -4.05429       14.93013       -1.07351
C         -5.01258       15.48013       -1.93349
C         -5.15744       16.86811       -1.74191
C         -4.34324       17.32706       -0.73223
S         -3.35676       16.17704       -0.05962
C         -4.58402       18.70433       -0.54301
C         -5.54217       19.10878       -1.44146
C         -5.93677       17.98181       -2.28032
C         -6.77445       17.98746       -3.33707
C         -7.42318       19.17431       -3.78172
N         -7.94182       20.14134       -4.16529
C         -7.01619       16.81540       -4.10401
N         -7.21633       15.86982       -4.74565
C         -5.85022       20.47228       -1.29735
C         -5.10674       21.07494       -0.28128
S         -4.02443       19.90400        0.45814
C         -5.03304       22.42823        0.17710
C         -6.01841       23.34344        0.15176
C         -5.93937       24.79695        0.47666
C         -5.11800       25.40082        1.37413
C         -5.20296       26.79091        1.68782
N         -5.26295       27.91820        1.94203
C         -4.14586       24.68508        2.13540
N         -3.35304       24.10543        2.74879
C         -7.08612       25.44960       -0.22926
C         -7.94690       24.44410       -0.68133
C         -7.41110       23.11945       -0.36912
O         -8.03989       22.08916       -0.48432
C         -9.12939       24.68025       -1.36292
C         -9.48139       26.00312       -1.62555
C         -8.62370       27.05771       -1.20511
C         -7.42269       26.76785       -0.51416
C         -8.99764       28.37927       -1.49346
C        -10.18671       28.65601       -2.17371
C        -11.02062       27.61787       -2.57908
C        -10.66929       26.29711       -2.30815
H         -1.21434        1.96838        8.22599
H         -4.03979        5.64804        6.32613
H         -3.72310        6.93940        8.38869
H         -2.80278        7.14113       10.66018
H         -1.56061        5.25580       11.68173
H         -1.16209        3.18909       10.40559
H         -0.43642        2.06114        3.16112
H         -0.49467        3.02020        0.42455
H         -1.45392        8.72552       -2.26234
H         -2.37798       11.44662        1.44836
H         -3.15219       13.69030        1.17741
H         -4.43801       12.56302       -5.21908
H         -3.74547       10.15988       -4.92023
H         -5.56522       14.88217       -2.64739
H         -6.57162       21.00588       -1.89990
H         -4.04614       22.71389        0.52867
H         -9.74538       23.84585       -1.68782
H         -6.78160       27.59706       -0.23157
H         -8.36689       29.21179       -1.18757
H        -10.46284       29.68572       -2.38706
H        -11.94560       27.83437       -3.10773
H        -11.33213       25.49806       -2.63536
