100

C         -0.46730        0.57301        1.07673
C          0.69521        1.24749        0.93484
C          1.64850        0.90516       -0.06531
N          2.42159        0.62190       -0.88156
C          1.07961        2.27074        1.85354
N          1.40347        3.08925        2.60742
C         -0.87478       -0.65627        0.37212
C         -1.64316       -1.42476        1.26319
C         -2.19947       -2.64020        0.91315
C         -2.07101       -3.05441       -0.42027
C         -1.38561       -2.23024       -1.36422
C         -0.75904       -1.04190       -0.95097
C         -1.38054       -2.59840       -2.71595
C         -2.01237       -3.76858       -3.13677
C         -2.63638       -4.59821       -2.20902
C         -2.66504       -4.24509       -0.85901
C         -1.95003       -0.62907        2.47810
O         -2.57592       -0.98268        3.45293
C         -1.45066        0.74716        2.14389
C         -2.19838        1.80429        2.50196
C         -2.18891        3.04286        1.78587
C         -1.98463        3.28865        0.42143
C         -2.03435        4.66314        0.12113
C         -2.38448        5.40044        1.22721
S         -2.58685        4.51970        2.62164
C         -2.49973        6.75391        0.84793
C         -2.19979        6.87266       -0.49162
C         -1.87364        5.55304       -1.03118
C         -1.48988        5.21787       -2.28210
C         -1.36024        6.18811       -3.31463
N         -1.25705        6.97191       -4.16123
C         -1.17037        3.86725       -2.61716
N         -0.91416        2.76069       -2.84354
C         -2.31707        8.21369       -0.92147
C         -2.72424        9.05993        0.12265
S         -2.96434        8.16237        1.59226
C         -3.03995       10.48195        0.02803
C         -2.85641       11.54628        0.92767
C         -2.21840       11.34531        2.23495
O         -1.24031       10.63216        2.41242
O         -2.82303       11.95905        3.28229
C         -3.34150       12.80709        0.35612
C         -3.93032       12.60113       -0.87525
S         -3.85772       10.99464       -1.39740
C         -3.25477       14.22453        0.91618
C         -3.78080       15.35565        0.28269
C         -3.56811       16.52040        1.05151
C         -2.94275       16.23294        2.24234
S         -2.47235       14.65896        2.39807
C         -2.86331       17.40515        3.01883
C         -3.42863       18.43075        2.30270
C         -3.84465       17.95296        0.99123
C         -4.29410       18.67475       -0.05327
C         -4.44164       20.08917       -0.00007
N         -4.58975       21.23916        0.00303
C         -4.61118       18.05723       -1.29097
N         -4.87781       17.52442       -2.29178
C         -3.49144       19.60993        3.05502
C         -2.81763       19.49865        4.27052
S         -2.33761       17.82714        4.53713
C         -2.51813       20.45859        5.28845
C         -2.26651       21.76662        5.09113
C         -1.79735       22.77025        6.08990
C         -2.13070       22.83720        7.40955
C         -1.71107       23.90476        8.25305
N         -1.36489       24.77007        8.94417
C         -2.97739       21.87213        8.03130
N         -3.66066       21.08347        8.53092
C         -1.05755       23.82134        5.32407
C         -1.32651       23.63144        3.96747
C         -2.16290       22.45939        3.76060
O         -2.64399       22.19706        2.68162
C         -0.82544       24.41566        2.94195
C          0.02268       25.46122        3.28302
C          0.34025       25.68987        4.65129
C         -0.20129       24.85860        5.66452
C          1.20109       26.75143        4.96248
C          1.73692       27.55925        3.95504
C          1.42416       27.32087        2.61947
C          0.56894       26.27541        2.28315
H         -2.78654       -3.20128        1.63449
H         -0.25966       -0.40854       -1.68064
H         -0.90306       -1.96383       -3.46081
H         -2.01805       -4.03070       -4.19188
H         -3.11694       -5.51567       -2.53930
H         -3.17499       -4.90081       -0.15617
H         -2.95754        1.68096        3.27506
H         -1.81310        2.49868       -0.29748
H         -2.14795        8.56980       -1.93118
H         -3.46550       12.63833        3.00386
H         -4.39209       13.31817       -1.53902
H         -4.29955       15.33162       -0.66691
H         -3.96849       20.51744        2.71916
H         -2.40952       20.03786        6.28489
H         -1.08584       24.19373        1.90992
H          0.08535       25.04900        6.69394
H          1.46306       26.96360        5.99678
H          2.40213       28.37865        4.21532
H          1.84458       27.94842        1.83789
H          0.33432       26.10081        1.23447
