105

C         -0.45026        1.23493       -2.59867
C         -0.11492        1.91962       -3.71417
C         -0.53838        1.50399       -5.00644
N         -0.89480        1.16451       -6.05271
C          0.76786        3.03808       -3.67124
N          1.50220        3.93700       -3.64073
C         -1.09815       -0.08803       -2.53685
C         -0.55662       -0.77514       -1.43755
C         -0.91452       -2.07128       -1.11953
C         -1.93123       -2.67174       -1.87695
C         -2.57738       -1.93841       -2.91797
C         -2.13653       -0.64816       -3.25850
C         -3.66992       -2.51172       -3.58233
C         -4.10066       -3.79930       -3.26280
C         -3.43535       -4.53603       -2.28669
C         -2.36004       -3.97563       -1.59519
C          0.25504        0.15564       -0.61412
O          0.87107       -0.09978        0.39710
C          0.01910        1.49983       -1.24169
C         -0.10033        2.58401       -0.45849
C         -0.81052        3.76116       -0.85665
C         -1.94485        3.89832       -1.66976
C         -2.34145        5.24389       -1.79813
C         -1.56792        6.06496       -1.01292
S         -0.32332        5.30719       -0.21582
C         -2.07361        7.37806       -1.09978
C         -3.14692        7.39402       -1.96092
C         -3.36702        6.04142       -2.47695
C         -4.26948        5.62726       -3.38904
C         -5.19647        6.52039       -3.99179
N         -5.96342        7.24066       -4.47998
C         -4.32483        4.26935       -3.81008
N         -4.33810        3.15396       -4.13107
C         -3.69597        8.69169       -2.08063
C         -3.02697        9.60859       -1.26233
S         -1.71657        8.83668       -0.40196
C         -3.28159       11.03365       -1.09690
C         -3.76320       11.96539       -2.02689
C         -4.23951       11.59110       -3.32079
N         -4.70034       11.24283       -4.32564
C         -3.78457       13.25720       -1.46088
C         -3.50033       13.27183       -0.14138
S         -3.03845       11.79207        0.46407
S         -3.69936       14.77367        0.59801
C         -4.13280       15.42082       -0.89684
C         -4.09114       14.53858       -1.91833
C         -4.28946       15.13289       -3.18113
C         -4.03860       14.53294       -4.45608
N         -3.76729       14.08210       -5.48943
C         -4.64268       16.48143       -3.03128
S         -4.57984       16.95937       -1.35118
C         -4.98620       17.46989       -4.03985
C         -4.75983       18.84844       -3.99152
C         -5.21949       19.48592       -5.16318
C         -5.78488       18.58791       -6.04042
S         -5.82131       17.02200       -5.50120
C         -6.22538       19.28097       -7.18652
C         -5.93807       20.61556       -7.02792
C         -5.29222       20.83006       -5.73605
C         -4.89504       21.99553       -5.18848
C         -5.06778       23.24196       -5.85285
N         -5.22159       24.26949       -6.37545
C         -4.30796       22.04511       -3.89524
N         -3.83498       22.07733       -2.83593
C         -6.37662       21.37404       -8.12709
C         -7.01609       20.58452       -9.08651
S         -7.00642       18.90016       -8.60088
C         -7.71528       20.93276      -10.28542
C         -7.43195       21.97080      -11.09071
C         -8.24121       22.52921      -12.20709
C         -9.02189       21.84365      -13.07916
C         -9.67455       22.46870      -14.18022
N        -10.21069       22.97860      -15.07490
C         -9.20033       20.43093      -13.00146
N         -9.35171       19.28213      -12.92817
C         -7.88120       23.97951      -12.29331
C         -6.73804       24.18640      -11.51157
C         -6.30697       22.93951      -10.88101
O         -5.22754       22.76610      -10.35676
C         -6.13653       25.41734      -11.31971
C         -6.70037       26.52360      -11.95050
C         -7.85435       26.36087      -12.76862
C         -8.44534       25.08256      -12.92300
C         -8.38454       27.49411      -13.40497
C         -7.80172       28.75308      -13.23159
C         -6.68581       28.90356      -12.41318
C         -6.13738       27.79388      -11.77495
H         -0.45961       -2.57246       -0.27006
H         -2.64192       -0.09041       -4.04346
H         -4.20586       -1.95566       -4.34984
H         -4.95520       -4.22814       -3.78049
H         -3.76223       -5.54625       -2.05346
H         -1.86632       -4.56609       -0.82613
H          0.23485        2.52952        0.57803
H         -2.44940        3.05347       -2.12061
H         -4.53763        8.95313       -2.71032
H         -4.27878       19.33629       -3.15225
H         -6.27040       22.44623       -8.21994
H         -8.59484       20.32459      -10.47783
H         -5.26379       25.50176      -10.67772
H         -9.34657       25.00192      -13.52337
H         -9.25721       27.40899      -14.04973
H         -8.22124       29.61983      -13.73636
H         -6.23810       29.88417      -12.27244
H         -5.26520       27.92954      -11.13783
