103

C          4.02759        6.21076        2.95699
C          4.46100        6.16541        1.67642
C          5.28999        7.18021        1.12477
N          5.95644        8.02569        0.68428
C          4.17083        5.05122        0.83122
N          3.96495        4.13101        0.15450
C          4.44134        7.15658        4.01165
C          4.40237        6.46925        5.23666
C          4.72506        7.06773        6.44010
C          4.99160        8.44481        6.43381
C          4.92330        9.18162        5.21266
C          4.67813        8.52070        3.99511
C          5.06243       10.57617        5.24843
C          5.29352       11.23867        6.45441
C          5.41173       10.51470        7.63746
C          5.26303        9.12676        7.62808
C          3.74590        5.14921        5.05232
O          3.56823        4.28920        5.88677
C          3.22534        5.19638        3.64558
C          1.98315        4.73252        3.40768
C          1.13634        5.20765        2.35280
C          0.12966        4.53935        1.66210
C         -0.46486        5.34162        0.64351
C          0.14604        6.56958        0.55485
S          1.14209        6.87826        1.87115
C         -0.11893        7.43989       -0.53316
C         -1.19300        7.16232       -1.33653
C         -2.06807        5.98446       -1.00553
O         -1.41942        4.91874       -0.23864
C         -1.28750        8.11087       -2.39985
C         -0.24541        9.03785       -2.40333
S          0.83397        8.70220       -1.09452
C          0.04009       10.14692       -3.34925
C          0.65617       11.37564       -3.00199
C          0.92648       12.41585       -3.96349
N          1.55103       13.54866       -3.55476
C          1.91825       13.68589       -2.25395
C          1.65500       12.70414       -1.34083
N          1.00813       11.57427       -1.71136
C          2.05000       12.77353        0.03450
N          2.38498       12.83608        1.14463
C          2.56419       14.91377       -1.90206
N          3.07486       15.90534       -1.58043
C          0.56620       12.29663       -5.32642
C         -0.09725       11.09221       -5.71034
C         -0.33391        9.99057       -4.71382
N         -0.89992        8.90642       -5.27678
S         -1.16146        9.24228       -6.86898
N         -0.59383       10.78589       -6.92159
C          0.86688       13.34060       -6.33692
C          0.88589       14.72471       -6.20633
C          1.28527       15.39034       -7.39910
C          1.56140       14.50401       -8.41441
S          1.38718       12.89798       -7.92583
C          1.98225       14.96179       -9.69393
C          2.05127       16.31469       -9.90570
C          1.65289       17.28276       -8.83075
O          1.42540       16.74327       -7.49746
C          2.49993       16.60401      -11.22893
C          2.76375       15.46751      -11.98210
S          2.41937       14.05054      -11.04474
C          3.17139       15.28874      -13.34130
C          3.99038       16.09434      -14.03950
C          4.31103       16.06119      -15.49326
C          4.39481       14.97010      -16.29618
C          4.81563       15.04284      -17.65652
N          5.15154       15.10135      -18.76348
C          4.13175       13.64932      -15.82889
N          3.90919       12.57439      -15.45365
C          4.71727       17.45240      -15.86363
C          4.91568       18.17414      -14.68152
C          4.62973       17.34458      -13.51034
O          4.91909       17.64798      -12.37287
C          5.29259       19.50528      -14.63668
C          5.49419       20.16988      -15.84542
C          5.30467       19.47538      -17.07301
C          4.89974       18.11908      -17.06966
C          5.53174       20.16567      -18.27390
C          5.93208       21.50468      -18.26707
C          6.10172       22.17945      -17.06154
C          5.88149       21.51650      -15.85606
H          4.68457        6.49654        7.36295
H          4.60343        9.09419        3.07464
H          4.96697       11.16667        4.33821
H          5.37755       12.32279        6.46848
H          5.60241       11.03338        8.57364
H          5.34008        8.58548        8.56877
H          1.52609        4.05381        4.12681
H         -0.13377        3.50479        1.84348
H         -2.43636        5.52565       -1.92899
H         -2.93793        6.32270       -0.42903
H         -2.07557        8.09359       -3.14350
H          0.64694       15.25051       -5.29036
H          0.72355       17.78237       -9.12852
H          2.42290       18.05640       -8.73074
H          2.61765       17.61376      -11.60212
H          2.71238       14.43317      -13.82839
H          5.41647       20.00283      -13.67865
H          4.73192       17.63222      -18.02544
H          5.40929       19.66403      -19.23209
H          6.11388       22.02175      -19.20610
H          6.41049       23.22183      -17.05762
H          6.02041       22.06013      -14.92347
