142

C          1.39464        0.11014        1.21221
C          2.52346       -0.45128        1.68828
C          2.81977       -1.83129        1.49223
N          3.04887       -2.94729        1.32174
C          3.44757        0.27895        2.49220
N          4.20222        0.88493        3.13132
C          0.28534       -0.55993        0.48775
C         -0.88634        0.18004        0.70110
C         -2.08968       -0.07458        0.07099
C         -2.11775       -1.09988       -0.87364
C         -0.94650       -1.87704       -1.11564
C          0.25195       -1.61041       -0.41699
C         -0.99461       -2.87723       -2.09560
C         -2.15640       -3.09325       -2.83932
C         -3.29209       -2.32063       -2.60856
C         -3.27662       -1.33433       -1.62413
C         -0.58794        1.36440        1.51097
O         -1.39596        2.05948        2.08542
C          0.90537        1.48454        1.46692
C          1.58302        2.63885        1.33239
C          0.95564        3.91665        1.20534
C         -0.21688        4.28363        0.57985
C         -0.61327        5.65844        0.76826
C         -1.82454        6.32672        0.44885
C         -2.97660        5.52606       -0.08338
C         -3.42731        4.25820        0.27208
C         -4.61815        3.85547       -0.40407
C         -5.10960        4.84936       -1.21696
S         -3.96026        6.10301       -1.38826
C         -6.42651        4.91372       -1.91877
Cl        -5.36241        2.33643       -0.13965
C         -1.95630        7.71140        0.72102
C         -0.87706        8.47343        1.20762
C          0.35661        7.80592        1.48813
C          0.43922        6.39348        1.33464
S          1.71946        5.30868        1.80804
C          1.54925        8.60930        1.93177
C          1.64010        9.73361        2.74646
C          2.96799       10.25087        2.88842
C          3.89673        9.51082        2.19535
S          3.13705        8.25126        1.32959
C          5.37810        9.69316        2.09217
Cl         3.30411       11.65111        3.81729
C         -1.26896        9.87028        1.30376
C         -2.56892       10.14283        0.93533
S         -3.37716        8.70317        0.56467
C         -3.24976       11.40391        0.85391
C         -3.94402       11.78932        1.94579
C         -4.55978       13.09889        2.04739
C         -4.79334       13.87742        0.96933
C         -4.41326       13.34730       -0.40868
C         -3.19289       12.36103       -0.33863
N         -2.98180       11.62987       -1.61026
C         -4.05641       11.37928       -2.27480
C         -5.42456       11.81259       -1.84381
N         -5.64105       12.73661       -0.97241
F         -6.48435       11.22039       -2.40864
F         -3.94440       10.71365       -3.43165
C         -5.34202       15.18242        1.20685
C         -6.65290       15.58613        1.33617
C         -6.84443       17.00966        1.58751
C         -8.02577       17.79658        1.76537
C         -9.36709       17.12083        1.71566
C         -9.81610       16.05934        0.93651
C        -11.16356       15.66585        1.20474
C        -11.76766       16.47269        2.13920
S        -10.63692       17.55693        2.81475
C        -13.18315       16.45511        2.61909
Cl       -11.90408       14.34052        0.41248
C         -7.91359       19.19875        1.98966
C         -6.66387       19.81440        2.15937
C         -5.48681       19.03332        1.99222
C         -5.59499       17.65259        1.67381
S         -4.31876       16.52706        1.31065
C         -4.14973       19.70902        2.11989
C         -3.74033       20.97825        1.71809
C         -2.37457       21.27526        2.02370
C         -1.72490       20.20377        2.59046
S         -2.83240       18.95326        2.94992
C         -0.28725       20.03349        2.96069
Cl        -1.67621       22.80244        1.68306
C         -6.83753       21.19946        2.54502
C         -8.12926       21.67819        2.49407
S         -9.17110       20.40703        2.06022
C         -8.66782       22.97340        2.78614
C         -8.06471       24.13769        2.48390
C         -8.39131       25.52097        2.92913
C         -9.62053       26.06074        3.11353
C         -9.82133       27.43106        3.44182
N         -9.98746       28.54612        3.69987
C        -10.80771       25.29935        2.91670
N        -11.77767       24.67642        2.75884
C         -7.09020       26.25901        2.96849
C         -6.13457       25.47381        2.30614
C         -6.74042       24.24702        1.79706
O         -6.25676       23.53444        0.94110
C         -4.79649       25.80270        2.20284
C         -4.37831       27.00689        2.76653
C         -5.32504       27.85780        3.40453
C         -6.67771       27.46097        3.51816
C         -4.88435       29.08798        3.91463
C         -3.54262       29.46449        3.81130
C         -2.61739       28.61007        3.21787
C         -3.03204       27.38490        2.70030
H         -2.94638        0.56473        0.25703
H          1.14391       -2.18171       -0.65424
H         -0.11909       -3.48828       -2.30567
H         -2.17111       -3.86006       -3.60946
H         -4.18992       -2.48144       -3.20003
H         -4.17156       -0.73439       -1.46657
H          2.66433        2.62538        1.21044
H         -0.83787        3.56472        0.06270
H         -2.94845        3.64161        1.02133
H         -6.56430        4.05167       -2.57849
H         -6.53864        5.82284       -2.51805
H         -7.23996        4.90874       -1.18211
H          0.79021       10.19904        3.22710
H          5.65764       10.74862        2.17632
H          5.75960        9.33778        1.12858
H          5.89657        9.14209        2.88498
H         -0.61498       10.66804        1.62505
H         -4.01165       11.15522        2.82794
H         -4.81022       13.43094        3.05286
H         -4.13012       14.18853       -1.05660
H         -2.29154       12.97370       -0.19373
H         -7.45243       14.86365        1.24660
H         -9.20917       15.55723        0.19507
H        -13.87858       16.53598        1.77513
H        -13.40394       17.28385        3.30047
H        -13.39590       15.51986        3.14666
H         -4.39053       21.68965        1.22225
H          0.33258       20.86336        2.60610
H          0.12354       19.11667        2.52065
H         -0.17572       19.97198        4.04774
H         -6.01153       21.83872        2.82341
H         -9.59973       22.96805        3.34754
H         -4.10534       25.12549        1.70876
H         -7.36252       28.11165        4.05481
H         -5.58398       29.77521        4.38522
H         -3.21886       30.42844        4.19612
H         -1.57198       28.90001        3.14864
H         -2.29533       26.73066        2.23814
