110

C          1.13336        4.71469       -6.08027
C         -0.22018        4.79717       -6.11709
C         -1.04613        3.90772       -5.39247
N         -1.71922        3.17460       -4.78356
C         -0.88715        5.74038       -6.95606
N         -1.43243        6.50965       -7.65846
C          1.93047        3.64653       -5.45225
C          3.09700        3.48809       -6.21564
C          4.06171        2.54905       -5.90758
C          3.91323        1.82599       -4.71403
C          2.79034        2.06467       -3.86537
C          1.78094        2.95728       -4.26071
C          2.72737        1.43009       -2.61694
C          3.73910        0.56068       -2.20960
C          4.81053        0.29144       -3.05677
C          4.89453        0.91467       -4.30310
C          3.21595        4.60279       -7.19197
O          4.09433        4.77619       -8.00826
C          2.09289        5.53162       -6.82889
C          2.31407        6.86243       -6.84637
C          1.59450        7.80641       -6.03792
C          1.32585        9.16307       -6.27054
C          0.50683        9.72158       -5.24834
C          0.21463        8.77892       -4.28931
S          1.05346        7.36858       -4.42571
C         -0.68881        9.30525       -3.34706
C         -0.95039       10.61993       -3.64723
C         -0.18959       11.06224       -4.91863
C         -1.17065       11.48295       -6.00983
C          0.82308       12.16989       -4.61466
C         -1.85955       11.18553       -2.71271
C         -2.25644       10.25985       -1.74262
S         -1.51297        8.69672       -2.05066
C         -3.13238       10.39831       -0.58282
C         -3.29995       11.39294        0.38543
C         -4.12422       10.92573        1.50471
C         -4.36225       11.46736        2.80171
C         -5.14320       10.78327        3.74915
C         -5.73206        9.56901        3.42090
C         -5.52545        9.01051        2.16086
C         -4.70429        9.68694        1.23442
S         -4.28547        9.13254       -0.31966
C         -5.30923       11.32453        5.06640
N         -5.43893       11.75820        6.13527
C         -2.64738       12.76925        0.36774
C         -3.24391       13.93469        0.86235
C         -2.48539       15.08356        0.51157
C         -1.31693       14.72369       -0.12839
S         -1.07256       13.09309       -0.26782
C         -0.62036       15.88178       -0.53390
C         -1.32857       16.99464       -0.14142
C         -2.62944       16.62003        0.58973
C         -2.64315       17.13460        2.02913
C         -3.85605       17.11563       -0.18544
C         -0.68275       18.18006       -0.55333
C          0.42854       17.92051       -1.35676
S          0.76033       16.19827       -1.39740
C          1.29930       18.77260       -2.10572
C          0.91220       19.84836       -2.81455
C          1.71489       20.65105       -3.78608
C          3.03285       20.95330       -3.69207
C          3.66658       21.83884       -4.62786
N          4.19841       22.55485       -5.37422
C          3.86912       20.49065       -2.63497
N          4.53515       20.09069       -1.77913
C          0.73355       21.19568       -4.78347
C         -0.54774       20.96296       -4.28460
C         -0.50573       20.29511       -2.99469
O         -1.46542       20.23192       -2.25711
C         -1.72308       21.28912       -4.93952
C         -1.62010       21.91287       -6.17619
C         -0.34172       22.20293       -6.72317
C          0.83548       21.82439       -6.01987
C         -0.27369       22.85769       -7.95733
C         -1.44228       23.20628       -8.63972
C         -2.69092       22.90300       -8.10875
C         -2.78273       22.25762       -6.87732
H          4.94254        2.44605       -6.53380
H          0.93991        3.15129       -3.59949
H          1.90135        1.62677       -1.93551
H          3.69186        0.09654       -1.22739
H          5.59405       -0.39185       -2.73931
H          5.75054        0.70090       -4.93955
H          3.16810        7.24878       -7.40078
H          1.65906        9.69259       -7.15580
H         -1.90081       10.69168       -6.21739
H         -0.65226       11.71139       -6.94686
H         -1.73228       12.37320       -5.70358
H          1.52834       11.87738       -3.82682
H          0.31837       13.08234       -4.27638
H          1.41334       12.42207       -5.50333
H         -2.18225       12.21839       -2.74036
H         -3.88274       12.39945        3.09288
H         -6.34340        9.03211        4.14514
H         -5.96517        8.04767        1.90946
H         -4.21320       13.97490        1.34507
H         -1.76319       16.79911        2.58988
H         -3.53096       16.78218        2.56634
H         -2.64895       18.23122        2.05681
H         -3.85436       16.75352       -1.22087
H         -3.88440       18.21141       -0.22624
H         -4.78665       16.77247        0.28050
H         -1.05936       19.17141       -0.33827
H          2.32538       18.41951       -2.17699
H         -2.68784       21.04939       -4.49163
H          1.80166       22.02605       -6.47434
H          0.68581       23.10755       -8.39718
H         -1.37440       23.72008       -9.59484
H         -3.59947       23.17271       -8.64652
H         -3.76506       22.03144       -6.47465
