136

C          2.28473        0.69060        1.06920
C          3.34174        0.24513        0.34934
C          3.87773       -1.06420        0.50272
N          4.31321       -2.13316        0.62684
C          4.04578        1.08505       -0.56553
N          4.59677        1.77522       -1.31440
C          1.57134       -0.05170        2.15456
C          0.89449        0.88758        2.94324
C          0.06303        0.56252        4.00220
C         -0.09730       -0.78736        4.31780
C          0.60985       -1.77417        3.57360
C          1.43345       -1.39417        2.48473
C          0.46032       -3.12146        3.94018
C         -0.38222       -3.49134        4.99249
C         -1.09535       -2.52273        5.69256
C         -0.95142       -1.17700        5.35958
C          1.16862        2.24181        2.46460
O          1.07195        3.24271        3.14152
C          1.73424        2.07116        1.08032
C          1.57213        2.93091        0.04814
C          0.83403        4.15407        0.06880
C          0.99092        5.27036       -0.74147
C          0.11785        6.39091       -0.41524
C          0.00119        7.69216       -0.96568
C          0.75495        8.01580       -2.20837
C          2.08069        7.78054       -2.54370
C          2.41736        8.19960       -3.86663
C          1.36407        8.81015       -4.50839
S         -0.06203        8.69976       -3.57240
C          1.33215        9.45824       -5.85450
Cl         3.97739        7.95685       -4.52962
C         -0.82983        8.65817       -0.34529
C         -1.62727        8.34123        0.76673
C         -1.59206        7.00772        1.25847
C         -0.72883        6.05789        0.65156
S         -0.57273        4.37692        0.98423
C         -2.45777        6.64628        2.42967
C         -2.75357        7.36887        3.58203
C         -3.66129        6.70551        4.46488
C         -3.97552        5.43861        4.03328
S         -3.36173        5.17096        2.46599
C         -4.77525        4.38034        4.71992
Cl        -4.24639        7.43697        5.89807
C         -2.39975        9.49788        1.18119
C         -2.19909       10.62655        0.42015
S         -1.00348       10.33528       -0.74855
C         -2.80491       11.95857        0.54040
C         -2.95194       12.58293        1.78041
F         -2.57403       11.94401        2.90000
C         -3.47275       13.88117        1.89958
F         -3.56737       14.39640        3.13456
C         -3.87923       14.62523        0.78328
C         -3.77282       13.95960       -0.45639
C         -3.25439       12.66861       -0.57279
F         -3.21914       12.11432       -1.79547
F         -4.18443       14.53211       -1.60020
C         -4.43250       15.99680        0.92032
C         -4.70127       16.79250        2.01816
C         -5.46202       18.00927        1.72318
C         -5.93149       19.06526        2.54382
C         -5.51364       19.13941        3.96745
C         -4.96935       20.20639        4.66927
C         -4.69388       19.90820        6.03364
C         -4.95206       18.59184        6.33992
S         -5.74389       17.80901        5.04110
C         -4.65273       17.85865        7.60518
Cl        -4.06610       21.07848        7.11325
C         -6.74104       20.08945        1.99946
C         -7.22339       20.01756        0.68060
C         -6.72966       18.98185       -0.18733
C         -5.77503       18.06332        0.35622
S         -4.70760       16.96341       -0.44208
C         -7.15915       18.92529       -1.65793
C         -8.01562       19.72652       -2.41205
C         -8.08665       19.43337       -3.80810
C         -7.31511       18.35485       -4.14000
S         -6.64561       17.66612       -2.74636
C         -7.03912       17.76001       -5.47740
Cl        -9.02326       20.37098       -4.89103
C         -8.19756       21.06936        0.50721
C         -8.09083       22.12864        1.38228
S         -7.30009       21.55165        2.77632
C         -8.59464       23.47119        1.31521
C         -8.59635       24.23664        0.20286
C         -8.89962       25.69101        0.05055
C         -9.84469       26.39818        0.71670
C        -10.14870       27.75615        0.41215
N        -10.39793       28.86158        0.16535
C        -10.66201       25.80702        1.72340
N        -11.31821       25.31880        2.54393
C         -8.10307       26.17247       -1.12403
C         -7.59212       25.05404       -1.77629
C         -8.01698       23.83066       -1.11894
O         -7.94687       22.75057       -1.65999
C         -6.75862       25.08137       -2.88318
C         -6.40589       26.32666       -3.38946
C         -6.92693       27.50344       -2.78448
C         -7.77214       27.42239       -1.64647
C         -6.57400       28.74577       -3.34759
C         -5.70637       28.80708       -4.44350
C         -5.17865       27.64817       -4.99913
C         -5.53029       26.40507       -4.47522
H         -0.45560        1.34709        4.54664
H          1.92638       -2.17567        1.91435
H          1.00337       -3.90178        3.41035
H         -0.48461       -4.53938        5.26357
H         -1.76078       -2.81308        6.50199
H         -1.51506       -0.43403        5.92079
H          1.97890        2.67608       -0.92978
H          1.75258        5.30177       -1.50987
H          2.79243        7.31164       -1.87628
H          2.23141       10.06357       -6.01740
H          0.47196       10.12657       -5.97140
H          1.28478        8.69948       -6.64187
H         -2.35187        8.35160        3.79510
H         -4.28200        4.07161        5.64925
H         -4.89706        3.48340        4.10291
H         -5.77391        4.75137        4.97006
H         -3.10058        9.49599        2.00581
H         -4.42744       16.49305        3.01993
H         -4.77605       21.17542        4.22684
H         -3.57633       17.89637        7.81196
H         -4.93786       16.80291        7.55622
H         -5.17710       18.31432        8.45077
H         -8.57877       20.55667       -2.04134
H         -7.91403       17.83084       -6.13078
H         -6.76691       16.70162       -5.40742
H         -6.21022       18.29147       -5.95802
H         -8.86044       21.15969       -0.33045
H         -8.87990       23.90654        2.26986
H         -6.39342       24.15830       -3.31452
H         -8.11843       28.34312       -1.19270
H         -6.96368       29.66662       -2.93325
H         -5.43916       29.77489       -4.86211
H         -4.49172       27.70437       -5.84046
H         -5.11144       25.50771       -4.92269
