137

C          4.35303        3.53245        0.13927
C          4.98259        4.22567        1.11151
C          4.97736        3.77163        2.46085
N          4.93880        3.38416        3.55487
C          5.80940        5.35882        0.80466
N          6.51131        6.23869        0.55750
C          3.77372        2.17913        0.24480
C          4.11123        1.49205       -0.93558
C          3.69517        0.20372       -1.20143
C          2.76465       -0.36267       -0.32374
C          2.30330        0.37371        0.81199
C          2.86055        1.62938        1.12495
C          1.24020       -0.14480        1.56455
C          0.65530       -1.36691        1.22580
C          1.15275       -2.11038        0.15901
C          2.20781       -1.61569       -0.60644
C          4.65201        2.45204       -1.93132
O          5.06086        2.21483       -3.04585
C          4.40972        3.78951       -1.29211
C          3.84083        4.74463       -2.04430
C          3.01165        5.79565       -1.53958
C          2.15849        5.85413       -0.45277
C          1.35398        7.06130       -0.35068
C          0.40771        7.52562        0.61849
C          0.26856        6.82093        1.91954
C         -0.84630        6.65119        2.72854
C         -0.58880        5.91511        3.91824
C          0.71316        5.48068        3.98451
S          1.63764        6.12054        2.70434
C          1.36648        4.59661        4.98906
Cl        -1.81449        5.61256        5.07215
C         -0.41434        8.64538        0.33194
C         -0.33245        9.27476       -0.91203
C          0.68124        8.88120       -1.80726
C          1.53559        7.81508       -1.51351
S          2.88893        7.24536       -2.42453
C          0.75919        9.53184       -3.12575
C          0.74347        8.94365       -4.37856
C          0.70999        9.89451       -5.43367
C          0.66220       11.18865       -4.96458
S          0.90864       11.23881       -3.27190
C          0.42460       12.45023       -5.72005
Cl         0.64915        9.41788       -7.07500
C         -1.37771       10.23899       -1.06552
C         -2.10883       10.50788        0.06576
S         -1.59129        9.48093        1.31664
C         -3.11054       11.56745        0.24156
C         -3.39337       12.19905        1.46720
C         -4.18010       13.36922        1.57247
F         -4.34671       13.85183        2.81471
C         -4.75985       14.04999        0.47849
C         -4.56743       13.41535       -0.78412
C         -3.74962       12.14493       -0.90272
N         -3.70768       11.69044       -2.16903
S         -4.52186       12.75758       -3.12136
N         -5.01700       13.83914       -1.98091
C         -5.48447       15.32395        0.56063
C         -6.52351       15.79273       -0.20976
C         -7.01559       17.09933        0.16090
C         -8.08174       17.86120       -0.35710
C         -8.93335       17.29720       -1.42269
C         -9.27037       17.83941       -2.65245
C        -10.14630       17.01097       -3.40470
C        -10.41762       15.82342       -2.76308
S         -9.75673       15.80584       -1.18607
C        -11.17463       14.64359       -3.26699
Cl       -10.72951       17.47296       -4.94549
C         -8.34095       19.16126        0.10289
C         -7.56501       19.75227        1.10312
C         -6.49102       18.98427        1.65280
C         -6.24111       17.66329        1.18113
S         -5.01779       16.52756        1.66480
C         -5.58865       19.57034        2.68470
C         -4.94175       18.97885        3.76416
C         -4.01223       19.84027        4.42190
C         -3.96910       21.08561        3.84349
S         -5.10883       21.22154        2.59168
C         -3.06899       22.24233        4.09545
Cl        -3.03024       19.29576        5.71302
C         -8.06195       21.09836        1.35334
C         -9.20287       21.45727        0.66226
S         -9.56367       20.23600       -0.45514
C         -9.90847       22.70089        0.72078
C        -11.23274       22.87750        0.55767
C        -11.98667       24.15180        0.43135
C        -11.77935       25.30306        1.11425
C        -12.66904       26.41319        1.04475
N        -13.39481       27.31825        0.98616
C        -10.69374       25.45758        2.03525
N         -9.81266       25.57354        2.76573
C        -13.19265       23.84425       -0.38960
C        -13.34430       22.45420       -0.42766
C        -12.24879       21.79938        0.28778
O        -12.27058       20.64395        0.65443
C        -14.39570       21.80721       -1.05165
C        -15.36402       22.59292       -1.67603
C        -15.22563       24.01032       -1.68988
C        -14.12237       24.62594       -1.06010
C        -16.21478       24.77841       -2.31905
C        -17.32541       24.16907       -2.90580
C        -17.45794       22.78321       -2.88373
C        -16.47889       21.99737       -2.27835
H          3.98661       -0.28615       -2.12593
H          2.49724        2.19418        1.97967
H          0.82504        0.41764        2.39864
H         -0.19612       -1.73654        1.79220
H          0.70225       -3.06664       -0.09532
H          2.56381       -2.20262       -1.45098
H          3.85574        4.62403       -3.12915
H          2.04781        5.02669        0.22965
H         -1.82956        7.03550        2.49381
H          0.84421        4.63299        5.94899
H          2.40599        4.88958        5.16638
H          1.35699        3.55997        4.63384
H          0.71630        7.87174       -4.53163
H          0.89263       12.41604       -6.70793
H          0.81260       13.32844       -5.19503
H         -0.65392       12.58991       -5.85985
H         -1.52884       10.78143       -1.98744
H         -2.95782       11.82220        2.39262
H         -6.94254       15.21418       -1.02409
H         -8.91512       18.80393       -2.99490
H        -12.10042       14.95303       -3.76120
H        -11.44042       13.94683       -2.46577
H        -10.56193       14.09997       -3.99495
H         -5.06229       17.94019        4.04507
H         -2.35947       22.04221        4.90120
H         -3.63582       23.14389        4.35047
H         -2.48938       22.44881        3.18778
H         -7.61703       21.79936        2.04520
H         -9.26329       23.56111        0.87956
H        -14.45211       20.72222       -1.03410
H        -14.03509       25.70724       -1.10439
H        -16.14116       25.86406       -2.34262
H        -18.09318       24.78013       -3.37343
H        -18.32833       22.31169       -3.33280
H        -16.60236       20.91617       -2.26629
