143

C         -3.70014       10.35468      -10.52812
C         -4.09635        9.07108      -10.36371
C         -3.20681        7.98689      -10.60373
N         -2.46808        7.12328      -10.83203
C         -5.45436        8.72624      -10.09466
N         -6.55599        8.42763       -9.89157
C         -2.41919       10.76863      -11.12586
C         -2.70551       11.80319      -12.02763
C         -1.74104       12.36015      -12.84299
C         -0.41295       11.94004      -12.66749
C         -0.08822       10.99062      -11.65118
C         -1.10838       10.38554      -10.89630
C          1.25898       10.68206      -11.40957
C          2.27001       11.25957      -12.17829
C          1.94789       12.13655      -13.21028
C          0.61591       12.47720      -13.45172
C         -4.10035       12.27471      -11.81914
O         -4.68524       13.13667      -12.43787
C         -4.56927       11.52505      -10.59776
C         -5.33158       12.16654       -9.69424
C         -5.39600       11.83852       -8.29961
C         -4.77887       10.85312       -7.56492
C         -4.92294       10.91254       -6.13739
C         -4.33970       10.12285       -5.11055
C         -3.47022        8.94034       -5.43175
C         -3.42074        7.69215       -4.81490
C         -2.51315        6.77592       -5.42138
C         -1.93875        7.29967       -6.55392
S         -2.25652        8.97795       -6.66493
C         -1.10987        6.61630       -7.58862
Cl        -2.26914        5.19481       -4.81369
C         -4.61924       10.42570       -3.76314
C         -5.56993       11.39000       -3.40607
C         -6.15732       12.18241       -4.43800
C         -5.79401       11.95476       -5.79020
S         -6.25989       12.83783       -7.21825
C         -7.14282       13.25598       -4.09485
C         -8.27273       13.69621       -4.77668
C         -9.00963       14.70494       -4.08661
C         -8.48315       14.96745       -2.84479
S         -6.93704       14.25696       -2.69462
C         -9.04973       15.78522       -1.73307
Cl       -10.42055       15.41709       -4.74331
C         -5.79131       11.33601       -1.97266
C         -4.89253       10.56620       -1.26710
S         -3.85912        9.77537       -2.35879
C         -4.77122       10.41226        0.17205
C         -5.51513       10.99056        1.18414
C         -5.06890       10.60420        2.50955
N         -5.64386       11.06805        3.65651
C         -6.69047       11.91011        3.40891
C         -7.37742       12.44156        4.61012
O         -7.03686       12.15365        5.75260
C         -8.51651       13.35873        4.41029
C         -8.93326       13.70544        3.19297
C         -8.28356       13.18741        1.97525
O         -8.72199       13.51757        0.88111
C         -7.12567       12.27626        2.13398
N         -6.55891       11.84288        0.96769
C         -3.99770        9.73320        2.48205
S         -3.55016        9.40783        0.85984
C         -3.26383        9.11075        3.56169
C         -1.94873        8.69825        3.55720
C         -1.46631        8.16707        4.81402
C         -0.18206        7.68835        5.20271
C          0.95535        7.73253        4.21773
C          1.27198        8.66880        3.23640
C          2.50311        8.40689        2.55542
C          3.15627        7.31308        3.07054
S          2.11777        6.44840        4.11330
C          4.52974        6.79923        2.78438
Cl         3.08149        9.40707        1.29205
C          0.02886        7.26987        6.54428
C         -1.00292        7.29816        7.49916
C         -2.31294        7.64593        7.06774
C         -2.51467        8.12185        5.74923
S         -3.98660        8.69265        5.03036
C         -3.48912        7.45610        7.97794
C         -4.64231        8.21477        8.15547
C         -5.62433        7.58914        8.98284
C         -5.18303        6.39834        9.50999
S         -3.62513        6.01070        8.92558
C         -5.90052        5.45683       10.42122
Cl        -7.17650        8.27041        9.23460
C         -0.47266        7.01203        8.82190
C          0.85811        6.66345        8.83843
S          1.49045        6.68446        7.27682
C          1.72299        6.41355        9.93407
C          1.91108        5.19893       10.47844
C          2.56346        4.86693       11.76482
C          3.70464        5.43072       12.26876
C          4.29054        4.98165       13.47618
N          4.76492        4.60493       14.48132
C          4.39760        6.46161       11.59088
N          4.96510        7.31213       11.04216
C          1.81741        3.70276       12.30551
C          1.02717        3.17293       11.27300
C          1.17832        3.96426       10.04633
O          0.79792        3.63870        8.94310
C          0.13653        2.12767       11.44194
C          0.00630        1.58259       12.72032
C          0.80186        2.08450       13.79087
C          1.70400        3.15043       13.57211
C          0.65359        1.51385       15.06372
C         -0.26679        0.48662       15.28480
C         -1.05781        0.01787       14.23950
C         -0.92075        0.56081       12.96314
H         -2.00862       13.13666      -13.55305
H         -0.86139        9.65933      -10.12557
H          1.53715        9.99661      -10.61127
H          3.31067       11.02028      -11.97382
H          2.73659       12.56828      -13.82159
H          0.39100       13.17572      -14.25503
H         -5.79510       13.10610      -10.00115
H         -4.15169       10.11878       -8.02206
H         -4.02456        7.41941       -3.95857
H         -0.07905        6.97795       -7.58977
H         -1.53414        6.79323       -8.57599
H         -1.09765        5.52974       -7.45448
H         -8.59560       13.30269       -5.73113
H         -8.72159       16.82532       -1.80458
H         -8.74784       15.39934       -0.75552
H        -10.14565       15.76640       -1.75162
H         -6.56304       11.90273       -1.47070
H         -8.99532       13.73189        5.30961
H         -9.77226       14.37756        3.04438
H         -1.33218        8.79649        2.67541
H          0.67291        9.54178        3.01651
H          4.51959        6.13023        1.91939
H          4.94306        6.25156        3.63967
H          5.22479        7.62101        2.57499
H         -4.82949        9.16071        7.66135
H         -6.45343        6.00092       11.19514
H         -5.21492        4.77342       10.93322
H         -6.61730        4.85629        9.85117
H         -1.05301        7.09815        9.73220
H          2.17607        7.29861       10.36369
H         -0.46578        1.78605       10.60423
H          2.26027        3.54222       14.41802
H          1.25404        1.86498       15.90095
H         -0.36893        0.05438       16.27693
H         -1.78251       -0.77288       14.41637
H         -1.55155        0.18379       12.16025
