111

C         -0.17529        0.65955       -0.00833
C         -0.82965        0.94786        1.13863
C         -0.24617        0.69548        2.41612
N          0.25990        0.51784        3.44387
C         -2.16101        1.44595        1.13689
N         -3.25957        1.83325        1.14326
C          1.10217       -0.05801       -0.17340
C          1.05107       -0.75098       -1.39559
C          2.10834       -1.50651       -1.86979
C          3.31021       -1.47778       -1.14595
C          3.41505       -0.68182        0.03407
C          2.29033        0.00053        0.53419
C          4.66256       -0.55467        0.66253
C          5.78332       -1.22195        0.16626
C          5.66751       -2.04443       -0.95052
C          4.43982       -2.17206       -1.60274
C         -0.14820       -0.32702       -2.16370
O         -0.51058       -0.72927       -3.24705
C         -0.69556        0.82031       -1.36309
C         -1.09363        1.92711       -2.01241
C         -1.03217        3.23175       -1.42227
C         -0.10159        3.78487       -0.52655
C         -0.35837        5.15284       -0.26613
C         -1.43560        5.58817       -1.00397
S         -2.23688        4.40781       -1.85464
C         -1.60789        6.97354       -0.81148
C         -0.67123        7.45217        0.07709
C          0.23292        6.30383        0.58640
C          1.71054        6.54684        0.28440
C         -0.00210        6.04044        2.07885
C         -0.83888        8.85272        0.28082
C         -1.86405        9.38617       -0.51944
S         -2.66208        8.09938       -1.39695
C         -2.37170       10.78401       -0.65714
C         -2.37581       11.72808        0.39761
C         -2.90673       13.07200        0.23699
N         -2.87062       13.92515        1.28253
C         -2.37990       13.50527        2.46161
C         -1.87587       12.24039        2.61268
N         -1.86500       11.35132        1.59440
F         -1.35777       11.85827        3.78790
F         -2.39469       14.36329        3.49114
C         -3.46294       13.54159       -0.97830
C         -3.46804       12.61959       -2.06331
C         -2.90153       11.23500       -1.90910
N         -2.95414       10.55019       -3.06658
S         -3.71888       11.47301       -4.18912
N         -3.95745       12.83509       -3.29960
C         -4.01727       14.90411       -1.21216
C         -4.05301       15.65440       -2.39476
C         -4.69967       16.89721       -2.21829
C         -5.12901       17.06156       -0.91905
S         -4.81586       15.77802        0.07645
C         -5.77952       18.31105       -0.79611
C         -5.77716       18.93721       -2.02253
C         -5.06280       18.10477       -3.09192
C         -5.99747       17.72571       -4.24159
C         -3.81526       18.82908       -3.60250
C         -6.41173       20.19351       -1.96722
C         -6.88170       20.48566       -0.68784
S         -6.49966       19.17958        0.42081
C         -7.50804       21.65190       -0.14998
C         -8.30837       22.50405       -0.81274
C         -8.80706       23.83364       -0.36421
C         -9.09769       24.21675        0.90099
C         -9.65361       25.49785        1.21127
N        -10.09948       26.54069        1.46486
C         -8.93271       23.36622        2.03142
N         -8.79621       22.67785        2.95793
C         -9.10206       24.61120       -1.60881
C         -9.07358       23.72801       -2.69111
C         -8.72635       22.37594       -2.25050
O         -8.82659       21.38867       -2.94714
C         -9.30523       24.09904       -4.00630
C         -9.57948       25.44102       -4.27045
C         -9.60980       26.37679       -3.19976
C         -9.35933       25.95539       -1.87183
C         -9.89036       27.72098       -3.49342
C        -10.13434       28.13346       -4.80635
C        -10.09664       27.21152       -5.84857
C         -9.81967       25.87200       -5.58286
H          2.02623       -2.02705       -2.81973
H          2.38631        0.62320        1.41945
H          4.78152        0.08520        1.53509
H          6.74814       -1.09828        0.65250
H          6.53915       -2.57490       -1.32643
H          4.38006       -2.80526       -2.48579
H         -1.32640        1.86891       -3.07797
H          0.72710        3.22912       -0.10715
H          1.88032        6.73108       -0.78273
H          2.32143        5.68139        0.56834
H          2.08784        7.41801        0.83266
H         -1.06445        5.86679        2.29257
H          0.31712        6.89332        2.68810
H          0.54539        5.15359        2.41881
H         -0.24545        9.44503        0.96774
H         -3.65154       15.31728       -3.34261
H         -6.89316       17.20322       -3.88455
H         -5.49543       17.06386       -4.95668
H         -6.33412       18.61520       -4.78703
H         -3.14024       19.09654       -2.78012
H         -4.08277       19.75854       -4.11864
H         -3.25016       18.20277       -4.30112
H         -6.50567       20.85174       -2.82021
H         -7.22609       21.86220        0.87738
H         -9.25937       23.35550       -4.79697
H         -9.36080       26.70141       -1.08751
H         -9.92848       28.46405       -2.69919
H        -10.35525       29.17728       -5.01508
H        -10.28499       27.53428       -6.86963
H         -9.79450       25.16621       -6.41118
