136

C          4.96307        2.51204       -1.15624
C          5.14548        1.31948       -0.54798
C          6.30844        0.52794       -0.76776
N          7.26052       -0.10173       -0.94791
C          4.14873        0.74535        0.29351
N          3.33296        0.29377        0.98350
C          5.85066        3.15597       -2.16735
C          5.06565        4.02856       -2.93461
C          5.57123        4.87642       -3.90376
C          6.95425        4.89049       -4.09596
C          7.78498        4.01431       -3.33626
C          7.22033        3.13910       -2.37997
C          9.17281        4.06885       -3.53006
C          9.73602        4.97538       -4.43144
C          8.92116        5.83600       -5.16134
C          7.53694        5.78977       -5.00034
C          3.68484        4.02214       -2.44144
O          2.70982        4.41885       -3.04010
C          3.75971        3.36493       -1.09703
C          3.07146        3.74064       -0.00301
C          2.20845        4.87897        0.04869
C          2.28269        6.08637       -0.61014
C          1.17121        6.98173       -0.40579
C          0.82568        8.20529       -1.04584
C          1.61888        8.70491       -2.22752
C          1.98364        9.99785       -2.59694
C          2.74666       10.07183       -3.80436
C          3.00791        8.83041       -4.33313
S          2.16036        7.62652       -3.46979
C          3.85063        8.46924       -5.51456
Cl         3.27368       11.56161       -4.46518
C         -0.27467        8.95243       -0.56227
C         -1.01463        8.54281        0.56216
C         -0.68062        7.30037        1.18398
C          0.38254        6.51983        0.65991
S          0.94280        4.95427        1.17788
C         -1.42486        6.81786        2.39843
C         -1.82121        5.53421        2.76592
C         -2.46304        5.45977        4.03967
C         -2.62635        6.69842        4.61203
S         -1.82546        7.89674        3.69344
C         -3.31536        7.06482        5.88641
Cl        -2.96077        3.97092        4.72536
C         -2.02252        9.54042        0.87126
C         -2.04637       10.63458        0.03520
S         -0.92780       10.41658       -1.21670
C         -2.86923       11.85289        0.11337
C         -3.28885       12.53747       -1.03364
C         -4.05443       13.70592       -0.94006
F         -4.40780       14.28613       -2.09630
C         -4.43817       14.25182        0.29415
C         -4.02825       13.54632        1.43938
C         -3.26171       12.38134        1.34685
F         -2.89428       11.79219        2.49537
C         -5.23217       15.50246        0.39042
C         -5.71343       16.34153       -0.59432
C         -6.53043       17.45595       -0.13475
C         -7.21315       18.49363       -0.83652
C         -7.14353       18.57196       -2.33266
C         -6.99912       19.67612       -3.16729
C         -6.97405       19.35555       -4.55817
C         -7.05580       18.00131       -4.78188
S         -7.33968       17.16407       -3.31903
C         -6.96417       17.25575       -6.07395
Cl        -6.83425       20.55922       -5.76869
C         -7.94952       19.47053       -0.11316
C         -8.04090       19.43741        1.29063
C         -7.35487       18.40277        1.98946
C         -6.60623       17.44207        1.26509
S         -5.64431       16.15745        1.90107
C         -7.42959       18.30522        3.48751
C         -7.50067       17.18708        4.31557
C         -7.55881       17.49163        5.70892
C         -7.60988       18.84552        5.93779
S         -7.33180       19.71076        4.49033
C         -7.80769       19.59408        7.21365
Cl        -7.59270       16.26707        6.90546
C         -8.87569       20.52514        1.76121
C         -9.35056       21.35903        0.78425
S         -8.86097       20.81528       -0.74292
C        -10.13238       22.54253        0.92003
C        -11.46758       22.54578        0.91121
C        -12.40404       23.69026        0.87959
C        -12.23635       24.89139        1.48259
C        -13.24375       25.89740        1.47169
N        -14.05816       26.72843        1.45526
C        -11.06384       25.22201        2.23312
N        -10.10816       25.48425        2.83648
C        -13.64945       23.19222        0.21373
C        -13.57576       21.79595        0.14103
C        -12.29980       21.31069        0.68256
O        -12.02804       20.15523        0.90841
C        -14.55353       20.99955       -0.43360
C        -15.67376       21.62685       -0.98639
C        -15.78365       23.04491       -0.93863
C        -14.76053       23.81890       -0.34135
C        -16.91978       23.65031       -1.50042
C        -17.92113       22.88208       -2.10036
C        -17.80156       21.49679       -2.15408
C        -16.68428       20.87217       -1.60069
H          4.90719        5.54900       -4.43842
H          7.87878        2.51289       -1.78486
H          9.83565        3.41417       -2.96744
H         10.81535        5.01427       -4.55757
H          9.36389        6.54826       -5.85348
H          6.91962        6.47724       -5.57530
H          3.24972        3.24699        0.94939
H          3.09452        6.30901       -1.28618
H          1.71805       10.88345       -2.03491
H          3.61246        9.10229       -6.37565
H          3.71139        7.42807       -5.82372
H          4.91373        8.60424       -5.28070
H         -1.64466        4.65157        2.16507
H         -4.13187        6.36985        6.11403
H         -3.75683        8.06630        5.83538
H         -2.60808        7.04090        6.72117
H         -2.70847        9.47372        1.70425
H         -3.03578       12.18213       -2.02915
H         -4.28125       13.87764        2.44267
H         -5.50597       16.15204       -1.63690
H         -6.91644       20.69410       -2.80909
H         -7.54169       17.75709       -6.85757
H         -7.34490       16.23279       -5.98926
H         -5.92128       17.19773       -6.40752
H         -7.50671       16.16662        3.95504
H         -7.99845       18.92485        8.05875
H         -8.67010       20.26683        7.13610
H         -6.92284       20.19180        7.45181
H         -9.12125       20.70867        2.79795
H         -9.55210       23.46418        0.97713
H        -14.42514       19.92110       -0.46743
H        -14.86078       24.89995       -0.35313
H        -17.04030       24.73172       -1.47466
H        -18.79582       23.36701       -2.52744
H        -18.57856       20.90028       -2.62614
H        -16.60893       19.78780       -1.65607
