159

C          6.13143        7.32730        1.95963
C          6.23192        8.35949        1.08860
C          6.49564        9.69415        1.50730
N          6.65994       10.78744        1.85947
C          6.08440        8.15880       -0.31922
N          5.92498        7.99313       -1.45636
C          6.77510        7.31959        3.28719
C          7.37178        6.05754        3.44315
C          8.19301        5.75377        4.51305
C          8.35240        6.72413        5.51617
C          7.65362        7.96535        5.42542
C          6.87704        8.26319        4.29330
C          7.74604        8.88469        6.47908
C          8.53548        8.61102        7.59537
C          9.25621        7.42221        7.66467
C          9.16506        6.48402        6.63386
C          6.88835        5.13395        2.38313
O          7.20457        3.97580        2.21946
C          5.84691        5.92704        1.63844
C          4.72928        5.29797        1.21787
C          3.38961        5.88179        0.97879
C          3.17110        7.21664        0.70724
C          1.90673        7.79072        0.59404
C          0.76341        7.04564        0.46336
C          0.95705        5.72217        0.92721
C          2.23172        5.13750        1.15341
C         -0.57650        7.67832       -0.05329
C         -1.81297        6.76802        0.15774
C         -1.75511        5.39128       -0.18054
C         -2.75451        4.47966        0.18474
C         -3.94552        4.95373        0.70552
C         -4.08375        6.31734        0.94630
C         -3.00042        7.19329        0.76253
C         -0.67331        8.94186       -0.69723
C          0.59004        9.81582       -1.18860
C          1.72952        9.23386       -1.77444
C          2.94330        9.94900       -1.93841
C          3.01000       11.31981       -1.73951
C          1.85482       11.97150       -1.37540
C          0.69423       11.22824       -1.08375
C         -2.05414        9.61081       -0.95266
C         -2.26792       10.93612       -0.56123
C         -3.34644       11.71245       -1.01259
C         -4.48000       11.14221       -1.58660
C         -4.36931        9.75153       -1.78849
C         -3.15682        9.03115       -1.58187
C         -5.68980       11.97320       -1.93218
C         -6.61574       11.66131       -2.95246
C         -7.74073       12.50904       -3.29307
N         -8.54771       12.08829       -4.28406
C         -8.34488       10.92938       -4.93989
C         -7.27817       10.14784       -4.62618
N         -6.41865       10.51447       -3.64524
C         -6.97702        8.89906       -5.27118
N         -6.79839        7.91951       -5.84565
C         -9.31870       10.59950       -5.93553
N        -10.11560       10.33168       -6.73723
C         -8.05294       13.75722       -2.66831
C         -7.14294       14.09657       -1.61926
C         -5.97150       13.20364       -1.24603
N         -5.26779       13.71601       -0.21911
S         -5.91305       15.16636        0.19218
N         -7.17905       15.20077       -0.85067
C         -9.20137       14.66588       -3.07779
C        -10.17450       14.28685       -4.00270
C        -11.25026       15.09601       -4.41808
C        -11.49260       16.37826       -3.95963
C        -10.44345       16.81657       -3.12923
C         -9.38921       15.98268       -2.64884
C        -12.79943       17.23244       -4.23695
C        -12.84349       18.62262       -3.50451
C        -12.44580       18.77150       -2.15120
C        -12.33774       20.02368       -1.51809
C        -12.86234       21.14754       -2.13107
C        -13.32872       21.03558       -3.43527
C        -13.18831       19.82457       -4.15015
C        -13.87779       16.76154       -5.02422
C        -13.74417       15.47371       -5.87056
C        -14.23996       14.22359       -5.42969
C        -14.21962       13.09049       -6.26923
C        -13.71992       13.18076       -7.56684
C        -13.19054       14.39077       -8.00957
C        -13.19797       15.52373       -7.17253
C        -15.29067       17.43599       -5.22006
C        -15.80177       18.51107       -4.49099
C        -17.01499       19.16233       -4.80381
C        -17.85546       18.70845       -5.81682
C        -17.47564       17.52254       -6.43134
C        -16.21661       16.92638       -6.16572
C        -19.08848       19.48785       -6.08553
C        -19.71111       19.76473       -7.24584
C        -20.84705       20.70808       -7.49843
C        -21.80797       21.11027       -6.64181
C        -22.90010       21.96053       -7.02876
N        -23.78763       22.64014       -7.31192
C        -21.85017       20.70174       -5.27051
N        -21.89462       20.39949       -4.14097
C        -20.81527       21.01756       -8.97643
C        -19.89752       20.14991       -9.58093
C        -19.23391       19.30787       -8.59059
O        -18.46767       18.42521       -8.90256
C        -19.62310       20.11844      -10.92945
C        -20.28995       21.01477      -11.75531
C        -21.21944       21.93215      -11.19249
C        -21.46533       21.92813       -9.79942
C        -21.87560       22.82277      -12.05553
C        -21.61975       22.80854      -13.43009
C        -20.70156       21.90939      -13.96577
C        -20.03801       21.01530      -13.13102
H          8.66416        4.77744        4.57850
H          6.35476        9.21407        4.22996
H          7.19588        9.82336        6.44506
H          8.58941        9.32980        8.40941
H          9.88307        7.21957        8.52962
H          9.73079        5.55832        6.71789
H          4.73865        4.20484        1.20671
H          3.95110        7.92608        0.56754
H          1.89121        8.86886        0.55220
H          0.12357        5.07959        1.18943
H          2.27421        4.10485        1.49679
H         -0.87755        4.97219       -0.67229
H         -2.59727        3.41030        0.05528
H         -4.76049        4.26699        0.91827
H         -5.03557        6.70635        1.29655
H         -3.12991        8.23051        1.05497
H          1.75697        8.16727       -1.98356
H          3.85214        9.41449       -2.19987
H          3.93274       11.87356       -1.89274
H          1.83784       13.05712       -1.29009
H         -0.10375       11.87517       -0.77110
H         -1.59479       11.43598        0.12402
H         -3.25786       12.78587       -0.86562
H         -5.22235        9.17020       -2.12998
H         -3.14072        7.98087       -1.86215
H        -10.19557       13.32160       -4.48693
H        -11.84880       14.59517       -5.15101
H        -10.37545       17.84553       -2.79204
H         -8.73390       16.45320       -1.92298
H        -12.13447       17.91073       -1.56236
H        -11.85685       20.11073       -0.54514
H        -12.89890       22.09788       -1.60221
H        -13.80499       21.89485       -3.90261
H        -13.46146       19.82243       -5.20223
H        -14.61424       14.10891       -4.41586
H        -14.59208       12.13098       -5.91337
H        -13.73131       12.31139       -8.22473
H        -12.77263       14.45119       -9.01313
H        -12.76740       16.44763       -7.54889
H        -15.28528       18.91784       -3.63711
H        -17.27874       20.04419       -4.22285
H        -18.12235       17.03291       -7.15587
H        -16.00721       16.02856       -6.74544
H        -19.43316       19.97448       -5.17435
H        -18.89495       19.40929      -11.31332
H        -22.16179       22.66841       -9.40710
H        -22.59976       23.53599      -11.66690
H        -22.13991       23.50234      -14.08551
H        -20.50058       21.90135      -15.03384
H        -19.32208       20.31847      -13.56303
