105

C         -6.08375        0.07541       -0.12534
C         -7.32872        0.60676       -0.17460
C         -8.23520        0.34037       -1.24123
N         -8.96108        0.12708       -2.12073
C         -7.88299        1.29173        0.94838
N         -8.34620        1.81720        1.87232
C         -5.71231       -1.13944       -0.88946
C         -5.07126       -2.01278        0.00316
C         -4.73584       -3.31264       -0.34074
C         -5.00259       -3.74076       -1.65356
C         -5.56030       -2.82805       -2.59744
C         -5.91814       -1.52638       -2.20294
C         -5.76112       -3.24502       -3.92121
C         -5.45415       -4.54747       -4.31406
C         -4.94866       -5.45335       -3.38643
C         -4.71885       -5.05295       -2.06729
C         -4.76516       -1.29871        1.26989
O         -4.21444       -1.76146        2.24546
C         -5.18321        0.13743        1.02076
C         -4.45842        1.11374        1.59816
C         -4.18260        2.52877        1.20861
C         -2.85625        3.01904        1.28951
O         -1.83494        2.14483        1.61510
C         -1.53605        1.22375        0.56421
C         -2.52961        4.40254        1.09415
O         -1.23008        4.85638        1.19895
C         -0.51383        4.36798        2.34007
C         -3.51818        5.34031        0.69487
C         -4.82507        4.80811        0.58036
C         -5.14950        3.45298        0.83204
C         -3.26801        6.81195        0.39354
C         -2.52543        7.71684        1.18815
C         -2.26940        9.12284        0.81749
N         -1.46934        9.87165        1.60380
C         -0.97920        9.32673        2.73662
C         -1.28911        8.04557        3.11927
N         -2.06509        7.24490        2.36341
F         -0.81677        7.55186        4.27282
F         -0.19338       10.08870        3.51035
C         -2.84817        9.77416       -0.30847
C         -3.71787        8.92124       -1.05436
C         -3.87549        7.43267       -0.74259
N         -4.65201        6.81051       -1.65094
S         -5.24202        7.95135       -2.67962
N         -4.53937        9.30072       -2.05057
C         -2.69192       11.25485       -0.65119
C         -2.51639       11.78702       -1.96229
O         -2.29977       10.86945       -2.97280
C         -3.15582       11.02739       -4.10312
C         -2.43383       13.20579       -2.21073
O         -2.12572       13.64439       -3.48479
C         -3.24335       14.16616       -4.20799
C         -2.48269       14.14407       -1.15274
C         -2.63026       13.61399        0.13398
C         -2.73033       12.22448        0.37245
C         -2.56641       15.62455       -1.37029
C         -2.12929       16.66156       -0.62603
C         -2.61852       18.06589       -0.66438
C         -2.85050       18.86025       -1.73699
C         -3.21358       20.23094       -1.62841
N         -3.51754       21.34665       -1.53858
C         -2.69549       18.37103       -3.06340
N         -2.58550       17.99654       -4.15650
C         -2.65174       18.51763        0.75271
C         -1.84381       17.65260        1.49951
C         -1.34970       16.55244        0.65189
O         -0.50930       15.73807        0.96377
C         -1.72588       17.72177        2.87679
C         -2.53277       18.64007        3.55833
C         -3.38709       19.51615        2.82844
C         -3.41580       19.46860        1.41913
C         -4.24072       20.37682        3.53603
C         -4.28116       20.35531        4.93163
C         -3.44606       19.49726        5.64100
C         -2.56527       18.65660        4.95968
H         -4.26815       -3.96849        0.38838
H         -6.35661       -0.84442       -2.92654
H         -6.16474       -2.55788       -4.66273
H         -5.61832       -4.85534       -5.34404
H         -4.72855       -6.47359       -3.69212
H         -4.31873       -5.78117       -1.36437
H         -3.79768        0.79612        2.41206
H         -1.81661        0.21541        0.88631
H         -0.45457        1.23130        0.40190
H         -2.03289        1.45739       -0.38406
H          0.07837        5.18807        2.75613
H          0.18627        3.58980        2.01869
H         -1.15806        3.99651        3.14711
H         -5.65242        5.45924        0.29660
H         -6.19050        3.17983        0.74419
H         -4.08523       11.56258       -3.87352
H         -3.43421       10.03383       -4.46577
H         -2.61063       11.51572       -4.91458
H         -3.27159       13.68732       -5.19200
H         -3.09667       15.23427       -4.38375
H         -4.20588       14.00095       -3.71120
H         -2.67408       14.26534        1.00398
H         -2.83429       11.92027        1.41299
H         -3.22531       15.85456       -2.20306
H         -1.09636       17.01022        3.40380
H         -4.10402       20.12099        0.88909
H         -4.91148       21.05146        3.00673
H         -4.97523       21.00068        5.46490
H         -3.48907       19.47117        6.72715
H         -1.93092       17.98526        5.53527
