157

C         -0.65231        4.30267        8.00185
C         -1.82476        4.86688        8.36970
C         -2.84529        4.13452        9.04038
N         -3.67182        3.52891        9.58257
C         -2.04251        6.27506        8.31052
N         -2.22871        7.41741        8.35921
C         -0.15632        2.99273        8.50264
C          1.23263        3.09998        8.67417
C          2.00543        2.08902        9.22391
C          1.37144        0.88781        9.57659
C         -0.02505        0.72953        9.33862
C         -0.78234        1.79335        8.80773
C         -0.63273       -0.49909        9.63797
C          0.10704       -1.55088       10.18026
C          1.46373       -1.38605       10.44241
C          2.09297       -0.17613       10.14139
C          1.71809        4.37364        8.09844
O          2.86530        4.76591        8.07694
C          0.50964        5.00054        7.45343
C          0.69988        5.77772        6.37506
C         -0.24619        6.09957        5.29409
C         -1.03088        7.25310        5.28312
C         -1.79162        7.60191        4.15122
C         -1.74393        6.83636        2.97756
C         -0.97542        5.65962        3.01289
C         -0.24107        5.29392        4.15165
C         -2.52372        7.31218        1.75131
C         -3.76124        6.48993        1.39659
C         -3.60855        5.10616        1.14590
C         -4.67075        4.28277        0.75342
C         -5.92408        4.83471        0.55279
C         -6.12041        6.18648        0.82669
C         -5.06375        6.99140        1.29626
C         -2.08297        8.44802        1.06500
C         -0.57522        8.86439        1.17719
C          0.44484        7.89247        1.21954
C          1.80575        8.20781        1.38798
C          2.21821        9.52928        1.41449
C          1.26893       10.51920        1.23870
C         -0.09244       10.18566        1.11367
C         -3.04911        9.33136        0.24445
C         -3.12431       10.71274        0.47993
C         -3.93919       11.60471       -0.26454
C         -4.93257       11.17038       -1.14756
C         -4.90574        9.76664       -1.32310
C         -3.94091        8.89226       -0.72869
C         -5.96081       12.11484       -1.79251
C         -6.84457       11.76606       -2.85391
C         -7.88944       12.64378       -3.39613
N         -8.69190       12.19396       -4.38324
C         -8.53592       10.93314       -4.82951
C         -7.55658       10.11645       -4.33603
N         -6.70922       10.53358       -3.37709
F         -7.43315        8.85603       -4.77338
F         -9.39021       10.48200       -5.75726
C         -8.13421       13.96192       -2.94371
C         -7.24402       14.38434       -1.91292
C         -6.16334       13.46536       -1.33307
N         -5.48242       14.09143       -0.35531
S         -6.06283       15.61901       -0.18823
N         -7.25437       15.59287       -1.31964
C         -9.24613       14.85858       -3.44464
C        -10.53383       14.35694       -3.74770
C        -11.58994       15.16332       -4.23353
C        -11.41672       16.53267       -4.40844
C        -10.14266       17.06144       -4.11771
C         -9.08674       16.24311       -3.64952
C        -12.49536       17.41413       -5.01926
C        -12.44510       17.53805       -6.56800
C        -13.51692       17.95866       -7.37573
C        -13.37662       18.19493       -8.75342
C        -12.19457       17.87130       -9.40115
C        -11.16384       17.30368       -8.66809
C        -11.28471       17.15551       -7.27691
C        -13.38587       18.09254       -4.18437
C        -13.57270       17.69799       -2.69933
C        -12.53047       17.52040       -1.77647
C        -12.76401       17.15396       -0.43619
C        -14.05767       17.05962        0.05815
C        -15.11459       17.25682       -0.80903
C        -14.86348       17.50462       -2.16611
C        -14.21547       19.26859       -4.74733
C        -15.60642       19.41032       -4.60678
C        -16.34233       20.44189       -5.22115
C        -15.74079       21.33932       -6.09989
C        -14.36585       21.18518       -6.27421
C        -13.60388       20.25693       -5.52972
C        -16.63639       22.28615       -6.81565
C        -16.41685       23.50326       -7.35215
C        -17.40415       24.48858       -7.92596
C        -18.63346       24.25153       -8.43154
C        -19.45610       25.27883       -9.00552
N        -20.12542       26.10298       -9.45989
C        -19.23081       22.95407       -8.48157
N        -19.71916       21.90381       -8.52207
C        -16.69466       25.81839       -7.94929
C        -15.35621       25.59994       -7.62543
C        -15.09990       24.21160       -7.30023
O        -13.98094       23.82369       -7.04623
C        -14.37889       26.57594       -7.55973
C        -14.75398       27.88176       -7.81477
C        -16.10842       28.17738       -8.13008
C        -17.07351       27.13437       -8.19068
C        -16.44388       29.51816       -8.36903
C        -15.47353       30.52481       -8.29846
C        -14.15254       30.21332       -7.98609
C        -13.79296       28.89381       -7.74401
H          3.07612        2.22717        9.34820
H         -1.84577        1.65155        8.63496
H         -1.69380       -0.65180        9.44830
H         -0.37915       -2.49819       10.40121
H          2.03489       -2.20317       10.87676
H          3.15619       -0.07472       10.35091
H          1.72055        6.07814        6.12841
H         -1.03297        7.93105        6.13218
H         -2.39635        8.50594        4.18418
H         -0.86300        5.03971        2.12864
H          0.38630        4.40516        4.10444
H         -2.64579        4.61985        1.23518
H         -4.50318        3.22093        0.58642
H         -6.74009        4.21465        0.18982
H         -7.10214        6.62333        0.66089
H         -5.27251        8.03393        1.51958
H          0.20664        6.84157        1.11054
H          2.53940        7.41172        1.48322
H          3.26724        9.78521        1.53148
H          1.57347       11.56228        1.18724
H         -0.72582       11.03776        0.93464
H         -2.56481       11.16981        1.28936
H         -3.76066       12.65836       -0.07408
H         -5.65877        9.25995       -1.91924
H         -3.98354        7.84022       -1.00174
H        -10.74886       13.29739       -3.62492
H        -12.54025       14.70135       -4.48810
H         -9.95570       18.12578       -4.26106
H         -8.13021       16.72661       -3.45524
H        -14.49554       18.16212       -6.95528
H        -14.20043       18.63352       -9.31147
H        -12.08748       18.03657      -10.46946
H        -10.25476       16.98082       -9.16908
H        -10.43163       16.71489       -6.76891
H        -11.49463       17.64419       -2.06230
H        -11.92273       16.95371        0.22242
H        -14.24180       16.82250        1.10186
H        -16.13978       17.19741       -0.45128
H        -15.74165       17.50569       -2.78974
H        -16.21595       18.70584       -4.06820
H        -17.41411       20.48238       -5.02980
H        -13.82470       21.73323       -7.03570
H        -12.52810       20.24097       -5.69798
H        -17.65466       21.90584       -6.81637
H        -13.36017       26.30382       -7.29635
H        -18.09975       27.40940       -8.41312
H        -17.46696       29.79561       -8.61419
H        -15.74994       31.55844       -8.48782
H        -13.39987       30.99508       -7.92881
H        -12.75890       28.66006       -7.49658
