57

C          0.77542        1.37106       -0.79342
C          0.94623        0.42047       -1.79425
C          0.25345       -0.79228       -1.73044
F          0.42661       -1.64607       -2.75054
C         -0.61280       -1.10056       -0.66461
C         -0.77395       -0.11873        0.33190
C         -0.08985        1.09434        0.25800
F         -0.26943        2.00904        1.21780
C         -1.36470       -2.37231       -0.57031
C         -2.62331       -2.57733       -0.02891
C         -3.04518       -3.93610       -0.15519
C         -2.10012       -4.74020       -0.70864
S         -0.66070       -3.85005       -1.12144
C         -2.51494       -6.10438       -0.80972
C         -3.78921       -6.30985       -0.29892
S         -4.49833       -4.81485        0.21637
C         -4.57215       -7.57990       -0.21352
C         -5.45992       -7.93203        0.82658
C         -6.21942       -9.17091        0.82968
N         -7.07327       -9.40584        1.85109
C         -7.19427       -8.49880        2.84222
C         -6.46126       -7.34630        2.84523
N         -5.59049       -7.06613        1.85923
F         -6.60147       -6.45464        3.83787
F         -8.05613       -8.76338        3.83226
C         -6.10724      -10.16086       -0.18827
C         -5.17098       -9.85150       -1.22878
C         -4.41552       -8.54449       -1.24943
N         -3.62655       -8.42387       -2.33562
S         -3.75273       -9.80527       -3.21411
N         -4.82681      -10.61847       -2.27993
C         -6.90237      -11.44983       -0.18674
C         -7.81732      -11.92125        0.75189
C         -8.35992      -13.19993        0.41954
C         -7.87860      -13.69039       -0.74719
S         -6.77903      -12.59143       -1.49294
C         -8.38947      -14.97861       -1.07579
C         -9.30848      -15.41853       -0.14260
S         -9.49342      -14.29552        1.15745
C        -10.07720      -16.68052       -0.15171
C        -11.36660      -16.76050        0.39764
C        -12.08002      -17.95638        0.35871
F        -13.30813      -18.00507        0.89153
C        -11.54726      -19.09653       -0.22748
C        -10.27425      -19.03977       -0.78676
C         -9.55377      -17.84355       -0.74597
F         -8.32885      -17.84268       -1.29526
H          1.30039        2.32009       -0.82753
H          1.60867        0.61294       -2.63412
H         -1.43310       -0.27982        1.18139
H         -3.23871       -1.79965        0.40664
H         -1.88803       -6.87724       -1.23626
H         -8.11413      -11.41142        1.65843
H         -8.09913      -15.52817       -1.96367
H        -11.84687      -15.89886        0.85324
H        -12.12474      -20.01487       -0.24700
H         -9.83455      -19.91400       -1.25574
