73

C         -0.21307       -5.86126        5.98518
N          0.50870       -6.16512        4.88375
N         -0.08470       -6.46742        3.61497
C         -1.42613       -6.48054        3.38544
C         -2.24600       -6.17294        4.49559
C         -1.61055       -5.85399        5.82928
N         -2.50597       -5.57786        6.79197
S         -4.00579       -5.70184        6.09530
N         -3.59138       -6.10924        4.54311
C         -1.92316       -6.81907        2.05803
C         -3.12582       -7.41840        1.66712
C         -3.17784       -7.60416        0.26785
C         -2.03866       -7.13079       -0.34069
S         -0.91529       -6.46788        0.68054
C         -2.11462       -7.39300       -1.72165
C         -3.29611       -8.04134       -1.99180
C         -4.05867       -8.18334       -0.74939
C         -5.28729       -8.71214       -0.58491
C         -6.02932       -9.22825       -1.68460
N         -6.62784       -9.64844       -2.58506
C         -5.91065       -8.77280        0.68952
N         -6.42080       -8.82432        1.73099
C         -3.38346       -8.40421       -3.35483
C         -2.23263       -8.02480       -4.05497
S         -1.13518       -7.14307       -3.03122
C         -1.90830       -8.29182       -5.44243
C         -0.67066       -8.46067       -6.03249
C         -0.74645       -8.72565       -7.45252
N          0.35546       -8.90197       -8.23997
C          1.52056       -8.81951       -7.52311
C          2.76923       -8.98324       -8.30699
O          2.77607       -9.17103       -9.51717
C          4.05579       -8.90674       -7.58632
C          4.11642       -8.70681       -6.26991
C          2.89861       -8.54773       -5.45506
O          3.00861       -8.38654       -4.24583
C          1.58921       -8.59451       -6.14755
N          0.50433       -8.40684       -5.34458
C         -2.04840       -8.81207       -7.90480
S         -3.14790       -8.46635       -6.62069
C         -2.56194       -9.19182       -9.20399
C         -3.73879       -8.75209       -9.81801
C         -4.00069       -9.47825      -11.00016
C         -3.00490      -10.39198      -11.25956
S         -1.77259      -10.41952      -10.15028
C         -3.35386      -11.13611      -12.40422
C         -4.57014      -10.69399      -12.87242
C         -5.04500       -9.60140      -12.01999
C         -6.18784       -8.89594      -12.12708
C         -6.54002       -7.89738      -11.17908
N         -6.82737       -7.09140      -10.39436
C         -7.11119       -9.12343      -13.18451
N         -7.86517       -9.30551      -14.04740
C         -5.01245      -11.46759      -13.96828
C         -4.11042      -12.49521      -14.26378
S         -2.70883      -12.42084      -13.22980
C         -4.20005      -13.57138      -15.24331
N         -3.58487      -14.75870      -14.98835
N         -3.64545      -15.89770      -15.85714
C         -4.32875      -15.90432      -17.02333
C         -4.99513      -14.71249      -17.35812
C         -4.93715      -13.50605      -16.44904
N         -5.63414      -12.46302      -16.94068
S         -6.29067      -12.95056      -18.38236
N         -5.72826      -14.50832      -18.46560
H          0.31202       -5.64522        6.90311
H         -3.88578       -7.72153        2.37839
H         -4.19585       -8.95351       -3.81498
H          4.95122       -9.02361       -8.18761
H          5.06040       -8.65318       -5.73769
H         -4.37558       -7.99108       -9.38320
H         -5.95232      -11.34634      -14.49485
H         -4.32567      -16.80434      -17.61923
