75

O         14.23224        3.40778        9.24943
N         13.91989        4.64308        9.79469
C         14.13830        5.53001        8.81508
C         13.96062        6.92241        9.09108
N         13.85121        8.05575        9.31842
C         14.59348        4.91119        7.63007
C         14.64415        3.57904        7.97055
C         15.02241        2.40902        7.26907
N         15.35072        1.47873        6.65939
C         14.91593        5.51435        6.36312
O         14.45602        6.59591        6.02762
O         15.80229        4.76926        5.65950
C         15.46222        4.32971        4.45056
C         15.92586        3.13796        3.88053
C         15.25096        2.84040        2.67936
C         14.39457        3.85813        2.34471
S         14.34724        5.13291        3.39497
C         13.72998        3.52780        1.15570
C         14.14258        2.29237        0.72561
C         15.13950        1.77415        1.67720
C         15.77737        0.58692        1.66343
C         16.71057        0.22559        2.67431
N         17.47932       -0.06626        3.49603
C         15.53325       -0.37263        0.64366
N         15.32247       -1.15715       -0.18423
C         13.48172        1.94226       -0.48117
C         12.57981        2.94011       -0.90327
S         12.62642        4.29184        0.20194
C         11.71403        3.02679       -2.11742
C         12.06743        2.45013       -3.36177
C         11.24656        2.60476       -4.54586
N         11.67163        2.08802       -5.71965
C         12.80799        1.36846       -5.75110
C         13.56562        1.18866       -4.62440
N         13.21769        1.73863       -3.43853
F         14.68671        0.45718       -4.67655
F         13.17453        0.82339       -6.91918
C          9.99900        3.27713       -4.53402
C          9.60165        3.85533       -3.30180
C         10.46829        3.73891       -2.07840
N          9.90577        4.35445       -1.02193
S          8.48540        5.03251       -1.50246
N          8.45930        4.52636       -3.06790
C          9.06143        3.35830       -5.68144
C          8.14285        4.35566       -6.05704
C          7.41113        3.98559       -7.21122
C          7.82802        2.76119       -7.67391
S          8.93100        1.97661       -6.73683
C          7.11251        2.42300       -8.82984
C          6.19942        3.41456       -9.08383
C          6.33119        4.47660       -8.08109
C          5.61341        5.61554       -7.98026
C          5.84931        6.55009       -6.93093
N          6.04032        7.31237       -6.07705
C          4.57069        5.93679       -8.91062
N          3.72781        6.18638       -9.65232
C          5.40128        3.07361      -10.18965
C          5.82103        1.88105      -10.78871
S          7.11777        1.15258       -9.89468
O          5.37924        1.23124      -11.86411
C          4.78977        1.96423      -12.83542
O          4.64918        3.17967      -12.85052
C          4.35611        1.16995      -13.95015
C          3.98098       -0.18561      -14.04720
N          3.61186       -0.51782      -15.29058
O          3.74113        0.64736      -16.03607
C          4.17526        1.64460      -15.22827
C          4.37214        2.91709      -15.82247
N          4.54765        3.95135      -16.31488
C          3.89318       -1.16773      -13.01157
N          3.82116       -1.92092      -12.13125
H         16.64537        2.50441        4.38835
H         13.64569        1.02682       -1.03860
H          8.01528        5.27813       -5.50101
H          4.56873        3.65377      -10.56366
