96

C          4.00439        0.11487        1.97754
N          5.10999       -0.54894        1.33956
C          6.37352        0.00156        1.19048
O          6.73377        1.08323        1.61479
C          7.20353       -1.06864        0.50292
C          8.52401       -0.95240        0.28442
C          9.48647       -2.12220        0.16205
O          9.24191       -3.30961        0.07554
N         10.75250       -1.56228        0.26205
C         11.98499       -2.30433        0.18718
C         10.67904       -0.17275        0.36561
C         11.73411        0.70367        0.44675
C         11.44895        2.06352        0.35107
O         12.47090        3.01703        0.45168
C         13.68769        2.70586       -0.14526
O         13.87355        1.85173       -1.00111
C         14.75593        3.49945        0.38354
C         14.86943        4.16604        1.62166
C         13.93944        4.19760        2.70890
N         13.15328        4.17384        3.56392
N         16.04738        4.78905        1.75126
O         16.73807        4.51177        0.57797
C         15.96820        3.72919       -0.21979
C         16.52349        3.33209       -1.46074
N         16.97939        3.01228       -2.48037
C         10.13574        2.52922        0.21530
C          9.08122        1.61398        0.16314
C          9.35543        0.26086        0.30921
C          6.30331       -2.21116        0.29406
C          6.42659       -3.40477       -0.39052
C          5.33350       -4.26503       -0.44150
C          4.11220       -3.92420        0.16476
C          2.95860       -4.81257        0.09351
C          3.07201       -6.14670        0.03683
C          1.91091       -7.02273       -0.05942
C          0.75803       -6.62550       -0.75536
C         -0.34901       -7.46425       -0.85390
C         -0.31276       -8.70011       -0.23759
C          0.87170       -9.11410        0.38806
C          1.98246       -8.29863        0.49750
N          0.75118      -10.42791        0.84428
C          1.75309      -11.13183        1.59943
C         -0.52746      -10.91431        0.62660
O         -0.96431      -11.96240        1.06383
C         -1.26374       -9.82192       -0.13472
C         -2.56163       -9.91980       -0.48015
C         -3.48142       -8.74001       -0.76297
O         -3.20378       -7.57054       -0.93508
N         -4.76703       -9.26183       -0.71712
C         -5.97169       -8.49426       -0.90660
C         -4.74474      -10.64240       -0.51982
C         -5.83439      -11.48104       -0.43272
C         -5.59174      -12.84436       -0.27591
O         -6.62553      -13.77963       -0.07982
C         -7.75244      -13.37899        0.63120
O         -7.93714      -12.28755        1.15012
C         -8.77265      -14.38123        0.66994
C        -10.16929      -14.17359        0.68486
C        -10.88391      -12.93952        0.58222
N        -11.43820      -11.91879        0.46475
N        -10.84636      -15.32768        0.76322
O         -9.87304      -16.31691        0.82182
C         -8.64367      -15.74359        0.75926
C         -7.52651      -16.60588        0.85244
N         -6.58959      -17.28805        0.93826
C         -4.29082      -13.35400       -0.36103
C         -3.20645      -12.47847       -0.48192
C         -3.43355      -11.11001       -0.45432
C          3.96257       -2.68214        0.78318
C          5.06139       -1.84697        0.82600
H          4.29478        1.11617        2.30755
H          3.68676       -0.46549        2.84867
H          3.17826        0.20424        1.26615
H         11.78589       -3.36807        0.03326
H         12.53977       -2.17701        1.12122
H         12.58350       -1.93564       -0.65229
H         12.74422        0.33300        0.55311
H          9.91917        3.59247        0.14746
H          8.07177        1.97835        0.00016
H          7.32842       -3.69730       -0.91210
H          5.44713       -5.20261       -0.98114
H          1.98653       -4.32628        0.10400
H          4.03863       -6.64159        0.07657
H          0.70641       -5.65378       -1.24216
H         -1.19085       -7.10755       -1.42916
H          2.87862       -8.63364        1.00724
H          2.74408      -10.96667        1.16836
H          1.54400      -12.20593        1.58796
H          1.72713      -10.78139        2.63509
H         -5.73892       -7.43782       -1.06431
H         -6.60780       -8.59037       -0.02181
H         -6.50031       -8.87302       -1.78663
H         -6.83303      -11.06677       -0.45727
H         -4.10684      -14.42343       -0.31764
H         -2.20622      -12.89159       -0.57562
H          3.01343       -2.38005        1.21147
