75

C         -0.70267        5.20586       -6.04674
C         -0.72916        4.23458       -5.03381
C         -1.32862        4.45731       -3.76622
C         -1.95468        5.67364       -3.39038
C         -1.93101        6.66820       -4.40085
C         -1.31341        6.42628       -5.70530
N         -1.43996        7.53159       -6.44798
O         -2.10367        8.44603       -5.65203
N         -2.39677        7.92712       -4.40516
C         -2.55831        5.92543       -2.07760
C         -3.63149        6.75061       -1.72089
C         -3.83891        6.75459       -0.32273
C         -2.94749        5.92567        0.31637
S         -1.87004        5.15079       -0.67451
C         -3.12658        6.04636        1.70725
C         -4.10321        6.97788        1.95647
C         -4.67886        7.41404        0.68195
C         -5.76343        8.18703        0.48274
C         -6.52197        8.70369        1.56910
N         -7.14645        9.12516        2.45193
C         -6.23943        8.48038       -0.82429
N         -6.63754        8.71100       -1.88966
C         -4.17698        7.28393        3.33582
C         -3.24156        6.55230        4.08748
S         -2.44710        5.37768        3.05587
C         -2.88185        6.64343        5.53395
C         -1.59813        6.35887        6.06962
C         -1.29782        6.44798        7.47756
N         -0.05882        6.11157        7.90357
C          0.86769        5.69616        7.02365
C          0.59988        5.65821        5.69003
N         -0.61077        5.99999        5.21749
C         -2.24134        6.89107        8.43815
C         -3.53472        7.22284        7.93805
C         -3.86236        7.08342        6.46896
N         -5.14009        7.41008        6.20176
S         -5.84662        7.89188        7.61085
N         -4.58659        7.66693        8.65152
C         -1.97896        7.01332        9.90247
C         -2.50510        7.90846       10.85085
C         -2.05954        7.61759       12.16431
C         -1.23217        6.52199       12.17070
S         -0.91519        5.86722       10.68875
C         -0.91628        6.18494       13.49951
C         -1.53351        7.07463       14.34560
C         -2.25775        8.07005       13.54738
C         -2.92375        9.15729       13.97821
C         -3.00277        9.48937       15.36452
N         -3.06138        9.76733       16.48691
C         -3.55154       10.05516       13.07258
N         -4.05397       10.79043       12.32762
C         -1.32378        6.72098       15.69766
C         -0.56263        5.55137       15.81070
S         -0.08980        4.95654       14.24220
C         -0.17878        4.78593       17.00056
C          1.01398        4.02726       17.12033
C          1.34954        3.25775       18.26579
C          0.52644        3.17845       19.40032
C         -0.66426        3.92257       19.31433
C         -1.02154        4.71576       18.13839
N         -2.21721        5.27581       18.38009
O         -2.58681        4.87102       19.64844
N         -1.64061        4.04190       20.22088
H         -0.24618        5.03397       -7.01307
H         -0.26876        3.26455       -5.22629
H         -1.29744        3.63027       -3.05516
H         -4.18789        7.33177       -2.44741
H         -4.81747        8.04215        3.76979
H          1.82787        5.40783        7.43294
H          1.33690        5.35442        4.95701
H         -3.20925        8.68938       10.58829
H         -1.72452        7.24188       16.55950
H          1.72838        4.02028       16.29550
H          2.28797        2.70148       18.26065
H          0.78234        2.58949       20.27173
