95

C         10.47732       -2.35069       -8.22911
C         10.46987       -3.02805       -9.41607
S          9.14169       -4.13484       -9.46635
C          8.60137       -3.70017       -7.88953
C          7.42829       -4.37098       -7.26255
C          9.41984       -2.73145       -7.36924
C          9.45506       -2.03427       -6.10948
O          8.56963       -1.93775       -5.28348
C         10.82773       -1.36668       -6.15031
C         11.29308       -1.34924       -7.58561
C         12.19188       -0.52519       -8.17195
C         12.51149       -0.62475       -9.55695
N         12.78036       -0.71453      -10.68184
C         12.84322        0.52021       -7.46146
N         13.36816        1.36802       -6.86765
C         11.57740       -1.09360       -5.06390
C         11.28778       -1.45244       -3.70891
C         11.63555       -0.74495       -2.54934
C         11.33338       -1.47688       -1.37845
C         10.75808       -2.68896       -1.68359
S         10.65781       -3.03059       -3.29812
C         10.44994       -3.37128       -0.49197
C         10.84128       -2.59686        0.57505
C         11.45772       -1.36406        0.07698
C         12.05279       -0.38749        0.79199
C         12.66225        0.73422        0.16317
N         13.15920        1.64372       -0.35574
C         12.12255       -0.44636        2.21018
N         12.16290       -0.51329        3.37077
C         10.52381       -3.22540        1.79704
C          9.88327       -4.45844        1.59539
S          9.76512       -4.82822       -0.09439
C          9.30391       -5.33700        2.63214
C          9.90532       -5.49911        3.89814
C          9.13630       -5.83254        5.06479
N          9.73064       -5.93777        6.27432
C         11.08036       -5.78011        6.34417
C         11.82146       -5.46281        5.23034
N         11.23623       -5.29591        4.01431
C         13.24560       -5.31056        5.25539
N         14.40081       -5.20007        5.27995
C         11.67312       -5.99046        7.63120
N         12.18015       -6.16859        8.66026
C          7.73981       -5.96320        4.99627
C          7.20258       -6.23998        3.70556
C          7.99431       -5.87940        2.48345
N          7.28083       -6.05074        1.35804
S          5.81670       -6.69018        1.77977
N          5.95719       -6.66489        3.42821
C          6.87216       -5.02043        5.74085
C          5.60037       -5.16460        6.30501
C          4.90781       -3.92001        6.26944
C          5.69917       -2.93716        5.72830
S          7.28782       -3.32774        5.51940
C          4.89005       -1.87342        5.30384
C          3.58599       -2.12718        5.64863
C          3.52976       -3.41599        6.35442
C          2.46452       -4.00948        6.91602
C          2.58156       -5.25217        7.58909
N          2.68975       -6.27624        8.13113
C          1.17333       -3.41222        6.86770
N          0.12653       -2.91834        6.79726
C          2.72160       -1.13718        5.12362
C          3.41229       -0.23112        4.30466
S          5.10604       -0.65205        4.21326
C          2.87223        0.79100        3.46385
C          3.50053        1.91067        3.06204
C          2.94780        2.54043        1.78932
O          1.83312        2.43929        1.31453
C          4.11108        3.20349        1.24852
C          4.37897        3.85741        0.07361
S          6.02685        4.36942        0.04597
C          6.35182        3.71739        1.61181
C          5.22244        3.14828        2.12890
C          4.83006        2.51783        3.36341
C          5.43658        2.64612        4.56680
C          6.72320        3.23639        4.69839
N          7.78578        3.69739        4.79592
C          4.81793        2.24049        5.78527
N          4.32401        1.91541        6.78366
C          3.49117        4.14546       -1.08594
H         11.14111       -2.97985      -10.26289
H          6.99246       -5.13944       -7.90902
H          6.64791       -3.63807       -7.03486
H          7.72754       -4.85462       -6.32614
H         12.56419       -0.65626       -5.17989
H         12.10342        0.23249       -2.58944
H         10.70722       -2.81452        2.78328
H          5.14783       -6.13248        6.48662
H          1.64491       -1.10022        5.24681
H          1.90367        0.55032        3.01964
H          7.34654        3.81659        2.02551
H          2.49589        3.71447       -0.94390
H          3.90708        3.72534       -2.00740
H          3.37049        5.22581       -1.21790
