97

C         -0.07621        3.68474        3.59782
N          0.60462        2.41113        3.42642
C          0.78714        1.93048        2.13967
O          0.34358        2.49113        1.14129
C          1.55917        0.66418        2.03810
C          1.65512        0.07559        0.82496
C          2.24877       -1.20663        0.51522
C          1.91117       -2.42484        0.99086
O          0.86873       -2.61190        1.87357
C          0.98747       -3.83181        2.60468
C          1.24486       -4.98802        1.65872
O          2.50194       -4.82532        1.01037
C          2.70001       -3.56796        0.48769
C          3.64317       -3.28479       -0.44352
C          4.60766       -4.18944       -0.99768
S          5.27709       -5.46665       -0.02112
C          6.25853       -6.12243       -1.27242
C          7.08979       -7.23043       -0.97626
C          8.36225       -7.14661       -0.53349
O          9.02854       -5.95713       -0.34364
C         10.43419       -6.14322       -0.51058
C         10.91776       -7.20870        0.45724
O         10.34869       -8.48426        0.14857
C          9.03465       -8.43164       -0.26229
C          8.29979       -9.53659       -0.50145
C          8.66009      -10.92676       -0.38024
C          9.06059      -11.58737        0.72733
C          9.43104      -13.01571        0.56759
O          9.37810      -13.57588       -0.52651
N          9.82938      -13.65596        1.72693
C         10.09043      -15.08452        1.66177
C         10.18734      -13.01245        2.90270
O         10.68674      -13.62834        3.84681
N          9.93736      -11.65217        2.96868
C         10.22947      -10.98035        4.22177
C          9.12827      -10.97500        2.07373
O          8.47261       -9.98493        2.38922
Si         6.57061       -9.01896       -1.13708
C          5.24378       -9.57312        0.02539
C          6.24994       -9.58157       -2.86795
C          6.11144       -5.37081       -2.41979
N          6.77309       -5.64095       -3.58502
C          6.48948       -4.71372       -4.55500
C          5.62619       -3.62638       -4.39013
N          4.93397       -3.35535       -3.24316
C          5.19913       -4.25405       -2.25141
C          5.41863       -2.65667       -5.49894
O          4.68569       -1.67915       -5.41108
C          6.13493       -2.88044       -6.76421
C          6.94715       -3.93027       -6.92767
C          7.17200       -4.91842       -5.85671
O          7.91171       -5.87080       -6.07915
Si         3.57620       -1.42222       -0.83528
C          2.84498       -1.01867       -2.49226
C          5.16618       -0.53314       -0.56850
C          2.18804        0.11862        3.26183
O          3.20117       -0.57487        3.22911
N          1.58897        0.52070        4.44240
C          2.00060       -0.13890        5.66864
C          0.87972        1.70326        4.58884
O          0.53624        2.12080        5.69692
H         -0.15234        4.24615        2.66356
H          0.47229        4.29243        4.32683
H         -1.08122        3.50024        3.99153
H          1.19307        0.56471       -0.03461
H          0.04678       -3.98945        3.14126
H          1.79106       -3.71978        3.34180
H          0.46722       -5.07119        0.89090
H          1.28124       -5.93007        2.21495
H         10.92533       -5.18727       -0.30788
H         10.63670       -6.41917       -1.55338
H         10.66586       -6.95298        1.49340
H         12.00491       -7.31332        0.38479
H          8.61489      -11.46751       -1.32769
H          9.62309      -15.54874        0.78901
H          9.70458      -15.57180        2.56362
H         11.17294      -15.24137        1.61666
H         11.13120      -11.39154        4.68566
H          9.38272      -11.11846        4.90174
H         10.37974       -9.90950        4.05147
H          5.42384       -9.20586        1.04039
H          5.20007      -10.66633        0.07385
H          4.26014       -9.21583       -0.29273
H          7.07157       -9.31045       -3.53811
H          5.33465       -9.13158       -3.26475
H          6.13004      -10.66890       -2.91400
H          5.97013       -2.15331       -7.54821
H          7.47219       -4.09953       -7.86077
H          1.92600       -1.58144       -2.67940
H          3.54669       -1.25481       -3.29016
H          2.61811        0.04768       -2.57977
H          5.65263       -0.83389        0.36382
H          5.01665        0.55056       -0.53380
H          5.86539       -0.73822       -1.38636
H          2.45185       -1.11529        5.47134
H          1.13172       -0.27804        6.32042
H          2.72620        0.49770        6.18571
