100

C         -4.33909       -0.38372       -1.23731
O         -5.17125       -1.08004       -0.69535
C         -4.63511        0.73323       -2.14111
C         -3.48205        1.50064       -2.37728
C         -3.59288        2.59473       -3.22818
C         -4.83464        2.88513       -3.82052
C         -5.95512        2.07893       -3.57704
C         -5.86866        0.98726       -2.72354
Br        -7.59351        2.47023       -4.43374
C         -2.34136        0.88323       -1.62814
C         -1.13362        1.45316       -1.39057
C         -0.76942        2.73730       -1.88890
N         -0.46726        3.78132       -2.29729
C         -0.13412        0.83039       -0.58725
N          0.68174        0.31392        0.05634
C         -2.84250       -0.41687       -1.10447
C         -2.16569       -1.52524       -0.75437
C         -2.78683       -2.76989       -0.44320
C         -3.21838       -3.25815        0.79098
C         -3.68352       -4.58781        0.68098
C         -3.66788       -5.02557       -0.62549
S         -3.01063       -3.94966       -1.70866
C         -4.18587       -6.33979       -0.67322
C         -4.47377       -6.75153        0.60746
C         -4.19155       -5.65974        1.54122
C         -4.35526       -5.64466        2.87901
C         -4.85296       -6.77079        3.59163
N         -5.24970       -7.69047        4.17863
C         -4.02346       -4.50451        3.65526
N         -3.74397       -3.57310        4.29554
C         -4.92220       -8.09190        0.63407
C         -5.04227       -8.62870       -0.65581
S         -4.59133       -7.43666       -1.85185
C         -5.54744       -9.95070       -1.02970
C         -5.24132      -10.78498       -2.10247
C         -4.14688      -10.58032       -3.06344
O         -3.15737       -9.90288       -2.83265
C         -4.22358      -11.44006       -4.24702
C         -5.08999      -12.59753       -4.31914
C         -4.75359      -13.42155       -5.38595
S         -3.64640      -12.63371       -6.43617
C         -3.51706      -11.25246       -5.42742
C         -2.71308      -10.08935       -5.93877
F         -2.68218       -9.02577       -5.10526
F         -1.42849      -10.43306       -6.20480
F         -3.24262       -9.62420       -7.10423
C         -5.17724      -14.81768       -5.75219
F         -6.04561      -15.38631       -4.88868
F         -5.74384      -14.86541       -6.98394
F         -4.09880      -15.64837       -5.78556
C         -6.16509      -12.84374       -3.35228
O         -7.08283      -13.60921       -3.60050
C         -6.14111      -11.94451       -2.18442
C         -6.92697      -12.07166       -1.04294
S         -6.74574      -10.68656       -0.04023
C         -7.80774      -13.14590       -0.59505
C         -8.96207      -13.03005        0.19116
C         -9.52366      -14.29240        0.48441
C         -8.81130      -15.30955       -0.10882
S         -7.42875      -14.82425       -0.88467
C         -9.43491      -16.53994        0.18576
C        -10.50182      -16.30449        1.02089
C        -10.63923      -14.86406        1.23959
C        -11.59692      -14.22301        1.93823
C        -12.61500      -14.94227        2.62295
N        -13.42701      -15.57120        3.16481
C        -11.65558      -12.80467        1.99996
N        -11.70804      -11.64604        2.03611
C        -11.12592      -17.50583        1.40984
C        -10.63430      -18.59380        0.68204
S         -9.23239      -18.12855       -0.25298
C        -11.06453      -19.95281        0.63610
C        -12.33070      -20.36489        0.80533
C        -12.54366      -21.81960        1.10309
O        -11.78704      -22.74407        0.89440
C        -13.84349      -21.89334        1.79282
C        -14.44080      -20.61953        1.85680
C        -13.61596      -19.68781        1.03670
C        -14.09511      -18.59581        0.39094
C        -15.33865      -17.98301        0.71506
N        -16.33729      -17.46139        0.99239
C        -13.42154      -18.01874       -0.72718
N        -12.90877      -17.54535       -1.65406
C        -15.62888      -20.47737        2.55880
C        -16.22757      -21.61707        3.11701
C        -15.63019      -22.88102        2.99114
C        -14.41088      -23.03260        2.34044
Br       -16.50069      -24.39651        3.71071
H         -2.75959        3.24268       -3.47810
H         -4.91653        3.74500       -4.48448
H         -6.71763        0.33976       -2.52678
H         -1.08214       -1.56272       -0.77181
H         -3.16928       -2.66470        1.69597
H         -5.15726       -8.65070        1.53153
H         -9.34641      -12.07545        0.52923
H        -11.93727      -17.59664        2.11961
H        -10.28382      -20.70542        0.50896
H        -16.12653      -19.52190        2.69139
H        -17.17561      -21.51044        3.64256
H        -13.91861      -23.99608        2.25250
