113

C         -1.77486        2.66695        3.26871
C         -1.82168        1.87841        1.99460
N         -2.87004        1.96286        1.17098
S         -2.48829        0.96308       -0.11848
N         -0.98434        0.40522        0.37003
C         -0.76465        0.99137        1.55433
C          0.49249        0.71751        2.36635
C          0.69883        1.87148        3.33464
C         -0.36327        2.75582        3.76658
N          0.00785        3.71778        4.61862
S          1.65724        3.49344        4.82002
N          1.90898        2.17857        3.81449
C          0.41439       -0.62732        3.09369
C         -0.61834       -1.53741        3.14623
C         -0.31514       -2.75371        3.86320
C         -1.05300       -3.95189        4.01073
C         -2.27062       -4.13824        3.17254
C         -2.48451       -3.79395        1.84298
C         -3.74445       -4.23262        1.33574
C         -4.44313       -4.95663        2.26801
S         -3.72569       -4.81544        3.81320
C         -5.67627       -5.78256        2.08385
C         -0.58691       -4.97472        4.86790
C          0.55093       -4.79738        5.66676
C          1.33824       -3.62555        5.45748
C          0.91644       -2.64535        4.52205
S          1.75681       -1.23630        3.94863
C          2.59295       -3.40896        6.23623
C          3.11652       -2.23635        6.76768
C          4.31976       -2.42577        7.51038
C          4.67114       -3.75333        7.58607
S          3.69317       -4.70365        6.56013
C          5.74654       -4.36967        8.41461
C          0.65949       -5.89932        6.61077
C         -0.20413       -6.95381        6.38482
S         -1.22139       -6.56627        5.08719
C         -0.34507       -8.22159        7.12045
C         -0.05151       -8.31882        8.49566
C         -0.18302       -9.50746        9.25217
F          0.18031       -9.41961       10.54207
C         -0.63692      -10.74058        8.74021
C         -0.95352      -10.71612        7.34699
C         -0.78552       -9.44135        6.51537
N         -1.07870       -9.64985        5.21918
S         -1.58821      -11.20799        5.05507
N         -1.42377      -11.74026        6.60721
C         -0.76841      -11.98518        9.51522
C         -0.57299      -13.28598        9.10713
C         -0.87398      -14.33303       10.06853
C         -0.81909      -15.77316       10.00336
C         -0.49307      -16.51636        8.70528
C         -0.24915      -17.86715        8.43822
C          0.00683      -18.19708        7.07077
C         -0.03208      -17.08919        6.27046
S         -0.48091      -15.72317        7.16194
C          0.21159      -16.98297        4.80613
C         -1.09035      -16.51235       11.20005
C         -1.56504      -15.90317       12.37375
C         -1.65358      -14.49211       12.39991
C         -1.26919      -13.72553       11.27469
S         -1.17744      -11.98974       11.15323
C         -2.04839      -13.83025       13.67422
C         -1.62204      -14.08940       14.97015
C         -2.13716      -13.16810       15.93188
C         -2.91570      -12.19735       15.34563
S         -3.23454      -12.57489       13.71111
C         -3.45871      -10.95147       15.96256
C         -1.92282      -16.89880       13.37744
C         -1.59778      -18.19089       13.03368
S         -0.85489      -18.19557       11.51795
C         -1.77367      -19.48053       13.83089
C         -0.52411      -19.78571       14.63541
N         -0.24579      -19.13703       15.77321
S          1.20264      -19.79591       16.30244
N          1.47675      -20.92835       15.09749
C          0.43859      -20.80285       14.26591
C          0.30318      -21.68587       13.06094
C         -1.11412      -21.67760       12.56991
C         -2.09326      -20.67572       12.94367
N         -3.31139      -20.86092       12.42073
S         -3.16480      -22.22555       11.45704
N         -1.55704      -22.61693       11.72939
H         -2.39133        2.17321        4.02587
H         -2.17650        3.67307        3.10046
H          1.34252        0.68821        1.66526
H         -1.56796       -1.36815        2.65192
H         -1.75086       -3.28698        1.22799
H         -4.07261       -4.09677        0.31210
H         -6.45293       -5.51556        2.80546
H         -5.43405       -6.84450        2.20750
H         -6.08257       -5.65093        1.07632
H          2.65397       -1.26362        6.65730
H          4.86061       -1.63212        8.01155
H          6.64192       -3.74001        8.42278
H          6.03275       -5.36460        8.06201
H          5.40064       -4.46917        9.45069
H          1.38549       -5.92771        7.41401
H          0.29432       -7.43761        9.03572
H         -0.22149      -13.45468        8.10458
H         -0.24176      -18.66250        9.16142
H          0.21086      -19.19914        6.71233
H          0.64903      -17.90643        4.41244
H          0.90574      -16.16757        4.57978
H         -0.72768      -16.79896        4.27463
H         -0.92832      -14.88118       15.22624
H         -1.88588      -13.17858       16.98601
H         -3.75687      -11.12733       17.00110
H         -4.32599      -10.55917       15.42253
H         -2.69537      -10.17519       15.95912
H         -2.38112      -16.65842       14.33010
H         -2.61148      -19.35077       14.53050
H          0.60496      -22.71002       13.31065
H          0.96617      -21.32083       12.26751
