134

C         -2.31811        3.50777        3.26019
N         -1.07345        3.12695        3.58569
C         -0.83426        1.80172        3.53534
C         -1.79329        0.87432        3.17114
C         -3.02856        1.38756        2.86533
N         -3.32230        2.69705        2.90437
C         -4.15167        0.50088        2.58393
C         -4.47492        0.06103        1.35846
C         -5.60556       -0.78600        1.11105
C         -6.02605       -1.32538       -0.09092
C         -7.25447       -2.10095       -0.01016
C         -8.10034       -2.63668       -1.00939
C         -7.86493       -2.29427       -2.43859
C         -7.92853       -3.10015       -3.56856
C         -7.60051       -2.41969       -4.77745
C         -7.21123       -1.11981       -4.55007
S         -7.51647       -0.67238       -2.92675
C         -6.61969       -0.12337       -5.49069
Cl        -7.64062       -3.20706       -6.29663
C         -9.17790       -3.47733       -0.65027
C         -9.35632       -3.92734        0.67223
C         -8.51741       -3.37685        1.70120
C         -7.56838       -2.37409        1.32806
S         -6.72262       -1.22255        2.30645
C         -8.67723       -3.81955        3.14963
C         -9.65537       -4.58044        3.78730
C         -9.48262       -4.74669        5.19616
C         -8.40570       -4.04280        5.66441
S         -7.46562       -3.49088        4.36157
C         -7.97365       -3.78408        7.06815
Cl       -10.56889       -5.67007        6.14203
C        -10.40823       -4.92607        0.68161
C        -11.12824       -5.04541       -0.48631
S        -10.44434       -4.06706       -1.68378
C        -12.28984       -5.87075       -0.73169
C        -12.63582       -6.51277       -1.89856
C        -13.82076       -7.34700       -1.84409
C        -14.45434       -8.21224       -2.80937
C        -13.81933       -8.39745       -4.19173
C        -12.55875       -8.06053       -4.69010
C        -12.32672       -8.38599       -6.06368
C        -13.37772       -9.06900       -6.61166
S        -14.68110       -9.09595       -5.53299
C        -13.49656       -9.69713       -7.95911
Cl       -10.86910       -7.98702       -6.86618
C        -15.66504       -8.89275       -2.41999
C        -16.25874       -8.71878       -1.15600
C        -15.61265       -7.86009       -0.23614
C        -14.41090       -7.20594       -0.57519
S        -13.48034       -6.13479        0.43710
C        -16.19622       -7.65977        1.11729
C        -15.59248       -7.77370        2.36145
C        -16.47183       -7.49151        3.44560
C        -17.75860       -7.24696        3.02230
S        -17.82508       -7.12444        1.31504
C        -18.99222       -7.05098        3.84027
Cl       -15.94122       -7.51304        5.07275
C        -17.49074       -9.49851       -1.02821
C        -17.86717      -10.13923       -2.18251
S        -16.61316      -10.04513       -3.30363
C        -19.07645      -10.86510       -2.48127
C        -19.80524      -11.69912       -1.67745
C        -20.98558      -12.26890       -2.31939
C        -21.99588      -13.09679       -1.78939
C        -21.98504      -13.40750       -0.33792
C        -22.09480      -14.62947        0.30861
C        -22.00920      -14.52587        1.72651
C        -21.76232      -13.23594        2.13947
S        -21.89712      -12.14118        0.83266
C        -21.42337      -12.73738        3.50386
Cl       -22.13855      -15.89380        2.74660
C        -23.00563      -13.62837       -2.61215
C        -23.03990      -13.38507       -3.99831
C        -22.03905      -12.51269       -4.57288
C        -21.05696      -11.93400       -3.68411
S        -19.84272      -10.72334       -3.97937
C        -22.05163      -12.22044       -6.08153
C        -22.90238      -12.63774       -7.10743
C        -22.62935      -12.10512       -8.40760
C        -21.53495      -11.28581       -8.40390
S        -20.83695      -11.24961       -6.86246
C        -20.92264      -10.49140       -9.50711
Cl       -23.60513      -12.47776       -9.76380
C        -24.16257      -14.12076       -4.55180
C        -24.94047      -14.82698       -3.65700
S        -24.34258      -14.61137       -2.09668
C        -26.12613      -15.64662       -3.92192
N        -26.97053      -15.88358       -2.89997
C        -28.07250      -16.58207       -3.19236
C        -28.36981      -17.04525       -4.45825
C        -27.42720      -16.76598       -5.43132
N        -26.30661      -16.06188       -5.19274
C        -27.65964      -17.23222       -6.80936
C        -26.68491      -17.45638       -7.69876
H         -2.53308        4.56975        3.30070
H          0.16683        1.50370        3.81436
H         -1.56932       -0.18237        3.16709
H         -4.73401        0.26084        3.47437
H         -3.87240        0.35928        0.50791
H         -5.49547       -1.13051       -1.01499
H         -8.19015       -4.15033       -3.54047
H         -6.47872       -0.54203       -6.49206
H         -5.63172        0.19134       -5.13439
H         -7.25388        0.76342       -5.58274
H        -10.51896       -5.00762        3.31439
H         -8.80471       -3.91595        7.76898
H         -7.62207       -2.75303        7.18843
H         -7.16788       -4.46357        7.36148
H        -10.68019       -5.53547        1.52504
H        -12.00593       -6.37768       -2.75839
H        -11.76843       -7.59888       -4.12965
H        -13.49174       -8.92971       -8.74002
H        -14.41565      -10.28304       -8.06588
H        -12.65661      -10.37698       -8.13802
H        -14.55138       -8.03941        2.49644
H        -18.93897       -7.62948        4.77001
H        -19.88758       -7.39173        3.30890
H        -19.12178       -5.99694        4.10222
H        -18.10991       -9.51517       -0.14079
H        -19.50829      -11.90682       -0.65764
H        -22.22627      -15.57070       -0.21137
H        -22.00278      -13.25671        4.27292
H        -21.60905      -11.66439        3.61346
H        -20.35965      -12.91512        3.70372
H        -23.73898      -13.29690       -7.00072
H        -21.34975      -10.74805      -10.48125
H        -19.84285      -10.66606       -9.56637
H        -21.08961       -9.42163       -9.34181
H        -24.46217      -14.15559       -5.58302
H        -28.74761      -16.76661       -2.36042
H        -29.27029      -17.60313       -4.65702
H        -28.69057      -17.42408       -7.09069
H        -25.63799      -17.30450       -7.45325
H        -26.91733      -17.81500       -8.69676
