106

C          0.08778        5.28789        0.32595
C          1.14212        6.17600        0.38572
C          1.06460        7.48422        0.97594
N          1.05716        8.54597        1.43482
C          2.41831        6.00616       -0.26892
N          3.46352        5.94716       -0.76579
C         -1.35672        5.73704        0.44372
C         -2.19496        4.74490       -0.02189
C         -3.57392        4.91600       -0.15115
C         -4.16113        6.16176        0.14807
C         -3.31276        7.22240        0.62654
C         -1.92269        6.98411        0.77502
C         -3.80957        8.58948        0.98044
O         -4.94479        8.75292        1.39481
O         -3.00720        9.66342        0.85278
C         -3.41359       10.92887        1.16827
C         -5.64029        6.29830       -0.08305
O         -6.38361        5.33787        0.02034
O         -6.18158        7.48700       -0.41169
C         -7.32790        7.60997       -1.18016
C         -1.42362        3.57892       -0.38763
O         -1.90676        2.53094       -0.79278
C          0.00912        3.83554       -0.13382
C          0.90223        2.81450       -0.26615
C          2.33481        2.71712        0.13661
C          3.26169        1.93730       -0.53209
C          4.52243        1.85612        0.03272
C          4.61654        2.65875        1.09900
S          3.14394        3.40386        1.43764
C          5.94158        2.77545        1.61414
C          6.92045        2.07450        0.96311
Ge         6.19561        1.00936       -0.48225
C          6.95266       -0.70466        0.03676
C          6.16394        0.89683       -2.42085
C          8.19601        2.26886        1.50904
C          8.15825        3.19540        2.57740
S          6.55618        3.69599        2.83253
C          9.32398        3.76078        3.30862
C         10.48300        3.29889        2.82553
C         11.19727        4.12797        1.88753
O         12.16944        4.77691        2.26393
C         11.34659        3.39774        0.73416
C         11.80908        2.07587        0.86107
C         11.72641        1.50364       -0.47391
S         11.15318        2.69400       -1.56179
C         10.91240        3.89785       -0.46415
C         10.19279        5.21967       -0.68005
F          9.99777        5.92328        0.50057
F         10.89883        6.02494       -1.54510
F          8.94083        4.95802       -1.20230
C         11.85939        0.13976       -1.09483
F         12.13262       -0.85245       -0.18640
F         10.65287       -0.16073       -1.71412
F         12.82458        0.16983       -2.08756
C         12.13563        1.67166        2.39502
O         12.79125        0.67493        2.65587
C         11.27246        2.41807        3.53075
C         10.91398        2.72142        4.93305
S          9.41765        3.51242        4.91210
C         11.43741        2.74224        6.31696
C         11.40757        3.03192        7.52537
C         11.33958        3.37937        8.97801
S         12.65625        4.01159        9.80639
C         11.97796        4.23444       11.32647
C         10.61945        3.84587       11.21973
C         10.25999        3.38429        9.90249
C         12.80314        4.60316       12.50191
C         13.61434        4.91278       13.37815
C         14.66712        5.28149       14.35855
C         14.37535        5.55204       15.65222
C         15.38151        6.05153       16.63885
C         16.74733        6.31378       16.38472
N         17.41687        6.76478       17.48604
C         16.47780        6.78328       18.43525
C         15.20609        6.34610       17.98717
C         14.32282        6.37442       19.08492
S         12.94673        5.97678       19.11388
C         15.07553        6.82813       20.17370
C         16.39167        7.08578       19.76342
N         17.18210        7.51477       20.75383
C         16.34511        7.53418       21.83517
C         15.03710        7.11199       21.51579
H         -4.17694        4.09908       -0.52645
H         -1.31965        7.80163        1.10541
H         -2.60712       11.63098        0.94190
H         -3.80513       10.89082        2.17931
H         -4.25948       11.28744        0.60396
H         -7.61437        8.66258       -1.25712
H         -8.18299        7.12731       -0.75584
H         -7.23910        7.11867       -2.17190
H          0.50271        1.87765       -0.67476
H          3.01948        1.50147       -1.42830
H          7.23516       -0.69413        1.10916
H          7.88727       -0.82854       -0.55746
H          6.26200       -1.53721       -0.19255
H          5.70620        1.80675       -2.85358
H          5.52026        0.02502       -2.67740
H          7.17788        0.71913       -2.82799
H          9.09751        1.78703        1.15714
H          9.91101        3.82996       12.05373
H          9.25818        3.03097        9.65875
H         15.70746        5.37900       14.02738
H         13.35517        5.43884       15.98872
H         17.23258        6.16489       15.43168
H         16.66412        7.83503       22.82517
H         14.19164        7.02425       22.18509
