93

C          1.69661       -2.92179        3.69691
O          2.06191       -3.55665        2.73265
C          2.44082       -2.74150        4.95441
C          1.97069       -1.60702        5.63765
C          2.53775       -1.29053        6.86581
C          3.55472       -2.11821        7.38631
C          3.98203       -3.26758        6.68880
C          3.42357       -3.58259        5.44920
Br         5.29248       -4.46380        7.36797
Br         4.30491       -1.60452        9.05818
C          0.86612       -1.01539        4.82527
C          0.44620        0.27106        4.83300
C          0.99744        1.24639        5.71185
N          1.46264        2.02863        6.43077
C         -0.50448        0.75567        3.88739
N         -1.28619        1.13674        3.11987
C          0.48916       -2.05201        3.84043
C         -0.72274       -2.35905        3.34717
C         -1.07088       -3.55278        2.57136
C         -1.57348       -4.73721        3.14764
C         -2.01849       -5.84574        2.37584
C         -2.02879       -5.86584        0.95757
C         -1.50185       -4.69295        0.36090
C         -1.01764       -3.55863        1.15821
N         -0.56922       -2.61961        0.31413
O         -0.73855       -3.13487       -0.95560
N         -1.33828       -4.37757       -0.93279
C         -2.50009       -6.99040        0.14441
C         -3.10772       -7.00649       -1.10067
C         -3.38838       -8.32921       -1.59084
C         -2.97933       -9.29133       -0.67505
S         -2.29187       -8.58929        0.72449
C         -3.13524      -10.64996       -0.93932
C         -3.69121      -11.09101       -2.14587
C         -4.10725      -10.13760       -3.06695
C         -3.96983       -8.77267       -2.79307
S         -4.75284      -10.87708       -4.47748
C         -4.45323      -12.46126       -3.90223
C         -3.90760      -12.41553       -2.63266
C         -4.73006      -13.66360       -4.65857
C         -4.43039      -14.94561       -4.25196
C         -4.84718      -15.97896       -5.15517
C         -5.30258      -15.41587       -6.34821
S         -5.45214      -13.69815       -6.20163
C         -5.56304      -16.20279       -7.48850
O         -5.89235      -15.52256       -8.65946
C         -6.81095      -16.17320       -9.53196
C         -5.35470      -17.59966       -7.43427
C         -5.05977      -18.17078       -6.19518
C         -4.78772      -17.38611       -5.05874
O         -4.26127      -18.03632       -3.94409
C         -4.86598      -17.73237       -2.68948
S         -5.09764      -19.89171       -6.29475
C         -5.15791      -19.89164       -8.00580
C         -5.29976      -18.60405       -8.46094
C         -5.15876      -21.06833       -8.80546
C         -4.39819      -22.14286       -8.56962
C         -4.86003      -23.44907       -9.12909
O         -5.48898      -23.65274      -10.14419
C         -4.48740      -24.43520       -8.09483
C         -3.72244      -23.81962       -7.08552
C         -3.41827      -22.43957       -7.52740
C         -2.33349      -21.69548       -7.20758
C         -1.98894      -20.51266       -7.92131
N         -1.68185      -19.56450       -8.52626
C         -1.41855      -22.09085       -6.19073
N         -0.69662      -22.42673       -5.35442
C         -3.44246      -24.52058       -5.92573
C         -3.87458      -25.85396       -5.82249
C         -4.59093      -26.46836       -6.87331
C         -4.91632      -25.74737       -8.02435
Br        -5.18557      -28.27012       -6.79734
Br        -3.45289      -26.75593       -4.20280
H          2.21261       -0.43117        7.44564
H          3.71959       -4.46638        4.89076
H         -1.59334       -1.75324        3.58967
H         -1.63962       -4.82205        4.23303
H         -2.37650       -6.72057        2.92194
H         -3.34044       -6.10875       -1.66297
H         -2.80454      -11.38269       -0.20630
H         -4.30240       -8.04308       -3.52861
H         -3.63875      -13.29293       -2.05784
H         -3.91724      -15.14218       -3.32233
H         -7.24477      -15.42456      -10.19998
H         -7.62397      -16.67134       -8.99308
H         -6.28759      -16.86534      -10.19229
H         -4.35742      -18.33539       -1.92917
H         -5.92989      -17.98198       -2.67625
H         -4.72248      -16.69777       -2.38196
H         -5.34390      -18.41298       -9.52220
H         -5.88857      -21.10218       -9.61574
H         -2.92334      -24.05657       -5.09175
H         -5.50568      -26.17570       -8.82990
