87

C         -6.90369       -0.70857        1.36097
O         -6.75809       -1.71306        2.02446
C         -8.04809        0.21099        1.42199
C         -7.77758        1.38482        0.69559
C         -8.79035        2.32417        0.55496
C        -10.04107        2.06813        1.14091
C        -10.27440        0.88295        1.85643
C         -9.26953       -0.06345        2.01434
Br       -11.99262        0.54495        2.56761
C         -6.38984        1.28838        0.15618
C         -5.61017        2.31977       -0.24559
C         -6.06418        3.67292       -0.26325
N         -6.43710        4.77082       -0.27828
C         -4.24336        2.13095       -0.60457
N         -3.13106        1.96671       -0.89297
C         -5.98392       -0.12646        0.32740
C         -5.16733       -0.89117       -0.41980
C         -5.02272       -2.34433       -0.27528
C         -4.02206       -2.97346        0.49054
C         -3.91597       -4.38803        0.61642
C         -4.79859       -5.29931       -0.01444
C         -5.81831       -4.68674       -0.78697
C         -5.92428       -3.22927       -0.91807
N         -6.97188       -2.95779       -1.71093
O         -7.51110       -4.18281       -2.05952
N         -6.81498       -5.23570       -1.49637
C         -4.71027       -6.76086        0.11001
C         -5.35349       -7.39211        1.11189
C         -5.26268       -8.82145        1.28795
C         -4.47812       -9.67730        0.38632
C         -3.77926       -9.22624       -0.65348
S         -3.68964       -7.53564       -1.08581
C         -4.63089      -11.00393        0.85373
C         -5.44898      -11.01027        1.95867
C         -5.64952      -12.28903        2.50251
C         -4.94692      -13.22984        1.76287
S         -4.07450      -12.52314        0.43499
C         -5.82967       -9.64094        2.22075
C         -6.68922       -9.25624        3.31038
C         -6.30807       -8.39801        4.27039
C         -7.15594       -8.02927        5.35007
C         -8.45176       -8.38809        5.64786
C         -8.94749       -7.79200        6.84765
Cl       -10.56426       -8.17230        7.30299
C         -8.02055       -6.96326        7.47894
S         -6.57148       -6.95095        6.53965
C         -8.12697       -6.16295        8.70671
C         -7.25055       -5.25700        9.30207
Cl        -5.65157       -4.82526        8.83855
C         -7.81006       -4.59976       10.44598
C         -9.10287       -4.98764       10.72473
S         -9.51167       -6.31345        9.72668
C         -9.95943       -4.52241       11.76643
C        -11.29642       -4.42270       11.70274
C        -12.04451       -4.31355       12.99852
O        -11.62976       -3.92430       14.06958
C        -13.38294       -4.87148       12.72350
C        -13.50487       -5.19651       11.35934
C        -12.29994       -4.67498       10.65988
C        -12.27129       -4.23456        9.37819
C        -13.32280       -4.48575        8.45374
N        -14.18103       -4.70978        7.70301
C        -11.22974       -3.38599        8.89699
N        -10.40883       -2.66204        8.51008
C        -14.63771       -5.87111       10.92914
C        -15.65618       -6.13874       11.85573
C        -15.53046       -5.74687       13.19865
C        -14.37601       -5.11969       13.65654
Br       -16.94808       -6.08884       14.40154
H         -8.67392        3.23836       -0.01868
H        -10.84272        2.79512        1.01629
H         -9.43251       -1.00015        2.53835
H         -4.62757       -0.48602       -1.27154
H         -3.29682       -2.35413        1.02010
H         -3.10719       -4.78581        1.23212
H         -5.96593       -6.83368        1.81398
H         -3.22478       -9.91592       -1.28233
H         -6.24738      -12.53167        3.37272
H         -4.89116      -14.29804        1.92857
H         -7.66304       -9.73688        3.31620
H         -5.30442       -7.97386        4.23555
H         -9.04057       -9.05758        5.03246
H         -7.28528       -3.84281       11.01835
H         -9.46641       -4.29658       12.71343
H        -14.76895       -6.20583        9.90463
H        -16.55500       -6.65288       11.51805
H        -14.24446       -4.83984       14.69698
