90

C          0.07704        5.46289       -0.11514
C          1.23419        6.24286       -0.08515
C          1.18837        7.65741        0.13240
N          1.29208        8.79909        0.29697
C          2.53599        5.73231       -0.34480
N          3.65652        5.45938       -0.52480
C         -1.32681        6.02747       -0.10369
C         -2.22813        5.01309       -0.31732
C         -3.59561        5.21087       -0.35309
C         -4.12197        6.50380       -0.21258
C         -3.21526        7.60471       -0.01821
C         -1.81972        7.34011        0.03174
C         -3.65123        9.02170        0.20925
O         -2.81736        9.91703        0.26566
O         -4.94993        9.30979        0.45249
C         -5.44709       10.55723        0.74470
C         -5.60658        6.59925       -0.31222
O         -6.15096        7.59530       -0.76163
O         -6.36068        5.53697        0.07164
C         -7.73745        5.52547        0.03828
C         -1.54959        3.76370       -0.50384
O         -2.11190        2.69508       -0.69642
C         -0.11201        3.95289       -0.30501
C          0.65470        2.82785       -0.27925
C          2.03242        2.61871        0.14097
C          2.87304        1.62722       -0.39316
C          4.12382        1.67573        0.19902
C          4.20516        2.62661        1.17783
S          2.77555        3.43045        1.42637
C          5.50327        2.82707        1.72032
C          6.45411        2.01510        1.18350
Ge         5.81597        0.81016       -0.16767
C          6.58912       -0.90426        0.31901
C          6.21118        1.06072       -2.06904
C          7.70738        2.29254        1.63983
C          7.68801        3.39483        2.49027
S          6.13910        4.03125        2.70220
C          9.03257        4.10275        2.52754
C         10.18594        4.71001        2.55952
C         11.53051        5.41794        2.59679
S         11.45790        6.91985        3.21121
C         12.97085        6.97015        2.64271
C         13.57076        5.88270        2.06919
C         12.67642        4.89650        2.07116
C         13.59008        8.35800        2.67157
C         14.12126        9.54850        2.69633
C         14.74049       10.93634        2.72519
C         13.99749       12.02627        2.49375
C         14.61210       13.35929        2.35736
S         13.87270       14.81659        2.71340
C         15.16813       15.81581        2.29060
C         16.17990       14.99450        1.74482
C         15.86725       13.62212        1.82344
N         17.36143       15.44715        1.08271
O         17.50589       16.60257        0.83225
O         18.07594       14.65375        0.54683
C         15.09526       17.28673        2.49732
C         16.07765       18.17574        2.76414
C         15.50751       19.45592        2.91664
C         14.08678       19.29398        2.74361
O         13.22940       20.15949        2.81057
N         13.84497       17.98530        2.51221
C         16.43955       20.36182        3.17588
O         17.66201       19.75945        3.23475
C         17.49138       18.42677        3.01157
O         18.38273       17.59944        3.10910
H         -4.23986        4.35640       -0.52058
H         -1.16082        8.16804        0.18752
H         -6.54005       10.46826        0.91506
H         -5.26932       11.25207       -0.10297
H         -4.96951       10.94202        1.66917
H         -8.10381        4.59034        0.50801
H         -8.08993        5.57283       -1.01275
H         -8.14061        6.38975        0.61072
H          0.18209        1.88957       -0.55327
H          2.61242        0.97210       -1.21375
H          6.62102       -1.00617        1.42149
H          7.64081       -0.89888       -0.05213
H          6.05119       -1.74472       -0.15644
H          5.88623        2.06423       -2.41123
H          5.64521        0.29536       -2.64525
H          7.29215        0.92077       -2.27384
H          8.60087        1.81899        1.24872
H         14.56972        5.83952        1.65531
H         12.80751        3.91044        1.64514
H         15.81108       11.01477        2.88668
H         12.91878       11.93538        2.39981
H         16.51507       12.84218        1.44283
H         12.91486       17.56961        2.35960
H         16.26231       21.41711        3.33609
