112

C          2.98600        0.98299       -9.85224
C          4.12925        0.77896       -9.12678
C          3.90189        0.48819       -7.72440
C          4.80223        0.15802       -6.67457
C          6.27270        0.15544       -6.95193
C          6.98060       -0.24671       -8.07776
C          8.39154       -0.06004       -7.97270
C          8.76429        0.40539       -6.73410
S          7.39193        0.83465       -5.81566
C         10.13549        0.58430       -6.17165
Cl         9.45720       -0.43098       -9.25988
C          4.30249       -0.15904       -5.38655
C          2.94829        0.00009       -5.06049
C          2.04423        0.37700       -6.10023
C          2.53041        0.57844       -7.42087
S          1.62922        1.00142       -8.85322
C          0.57925        0.53777       -5.82451
C         -0.52385        0.18136       -6.59575
C         -1.77888        0.51242       -6.00624
C         -1.63340        1.04405       -4.74761
S          0.01095        1.36112       -4.41345
C         -2.69246        1.38579       -3.75326
Cl        -3.26811        0.22244       -6.79944
C          2.76456       -0.23921       -3.63698
C          3.90602       -0.55929       -2.92379
S          5.15473       -0.85127       -4.04031
C          4.11150       -0.74464       -1.46251
C          5.31286       -0.44574       -0.75229
C          5.44810       -0.64189        0.66724
N          6.62054       -0.42702        1.29054
C          7.67775        0.00759        0.57022
C          7.53746        0.30263       -0.77590
N          6.36856        0.06795       -1.41755
C          8.65987        0.84866       -1.60230
C          8.97610        0.16384        1.29844
C          4.37647       -1.04292        1.47480
C          3.13605       -1.29958        0.81846
C          3.01700       -1.20026       -0.67087
N          1.79653       -1.56871       -1.10065
S          0.88000       -1.92955        0.21976
N          1.96827       -1.60439        1.41311
C          4.40682       -1.04415        2.93629
C          4.93550        0.04522        3.79621
N          4.60132        0.01801        5.06195
C          3.84415       -1.10696        5.13674
C          3.82169       -1.80257        3.87362
C          2.99375       -3.04331        4.02063
S          2.98014       -4.40422        3.06533
C          2.33934       -2.80416        5.34709
C          2.97266       -1.66344        5.97329
N          2.40825       -1.39514        7.17790
C          1.46617       -2.29482        7.25126
C          1.33795       -3.24807        6.11005
C          0.29363       -4.25228        5.94371
C         -0.20176       -4.93285        7.07613
C         -1.31343       -5.77767        6.99231
C         -1.92929       -5.93927        5.76380
C         -1.40629       -5.32366        4.60945
C         -0.31130       -4.47039        4.69400
C         -2.27043       -5.67817        3.39155
C         -2.66911       -4.44690        2.57298
C         -1.53256       -6.69615        2.50836
C         -3.47388       -6.34396        4.06993
C         -4.73073       -6.63047        3.54438
C         -5.74828       -7.10214        4.39960
C         -5.41438       -7.37743        5.75033
C         -4.14579       -7.11120        6.27366
C         -3.19809       -6.55164        5.43772
C         -7.14593       -7.21562        3.94151
N         -8.10832       -7.08677        4.87934
C         -9.37841       -7.09065        4.44572
C         -9.72379       -7.24708        3.12740
C         -8.67411       -7.37691        2.24235
N         -7.38092       -7.34745        2.62424
C         -8.94973       -7.56077        0.81216
C         -8.10724       -7.18863       -0.16048
H          2.89942        1.16187      -10.91582
H          5.09427        0.80704       -9.61154
H          6.51849       -0.66335       -8.96216
H         10.57373       -0.39311       -5.93687
H         10.13474        1.17613       -5.25040
H         10.79189        1.08669       -6.88893
H         -0.45564       -0.29703       -7.56397
H         -3.30506        2.21752       -4.11404
H         -2.27508        1.66483       -2.78023
H         -3.34994        0.52385       -3.58734
H          1.81332       -0.13081       -3.13815
H          9.39627        0.06555       -1.80545
H          9.14871        1.68427       -1.09262
H          8.28361        1.22461       -2.55885
H          8.91961       -0.29469        2.29279
H          9.22167        1.22240        1.42447
H          9.78717       -0.33495        0.75668
H          5.55518        0.83769        3.35785
H          0.76333       -2.36214        8.09516
H          0.25256       -4.78491        8.05414
H         -1.70847       -6.25015        7.88565
H          0.02118       -3.94207        3.80614
H         -1.79140       -3.95321        2.14016
H         -3.19730       -3.70726        3.18524
H         -3.32880       -4.71845        1.74040
H         -0.62005       -6.26395        2.08094
H         -2.16344       -7.03497        1.67833
H         -1.23422       -7.58811        3.07393
H         -4.95169       -6.41670        2.50161
H         -6.18186       -7.75787        6.42409
H         -3.94881       -7.27310        7.32762
H        -10.13239       -6.95119        5.21467
H        -10.75803       -7.24316        2.81267
H         -9.89951       -8.01974        0.55424
H         -7.15751       -6.71055        0.06180
H         -8.35822       -7.34642       -1.20369
