81

C         -5.03338       -0.27740       -2.07474
O         -5.49421       -1.29304       -2.55012
C         -5.06023        1.03283       -2.72588
C         -4.48363        2.01495       -1.90485
C         -4.37489        3.30182       -2.41970
C         -4.85521        3.57186       -3.71418
C         -5.43421        2.56172       -4.49419
C         -5.54269        1.26906       -4.00464
Br        -6.05135        2.95346       -6.23621
C         -4.08419        1.37622       -0.60925
C         -3.68432        2.02555        0.51338
C         -3.54353        3.44220        0.58237
N         -3.42228        4.59556        0.64490
C         -3.39636        1.35869        1.73970
N         -3.15306        0.82752        2.73954
C         -4.31590       -0.08211       -0.77143
C         -3.91143       -1.12907       -0.03645
C         -4.15951       -2.53107       -0.35406
N         -3.17987       -3.18867       -0.99536
C         -3.38358       -4.52563       -1.10778
C         -4.47950       -5.18522       -0.58703
N         -5.41181       -4.45693        0.06916
N         -5.24589       -3.10711        0.19915
C         -4.63885       -6.64816       -0.56888
S         -5.52092       -7.32055        0.73617
C         -5.24561       -8.93877        0.25808
C         -4.41493       -8.97796       -0.85992
C         -4.20088       -7.65219       -1.43024
C         -3.53148       -7.50405       -2.77844
N         -4.19726       -6.44507       -3.52820
C         -3.60808       -8.80696       -3.59651
C         -3.04911       -9.97076       -2.78388
C         -3.86636      -10.23493       -1.50630
N         -2.96443      -10.89362       -0.56106
C         -5.87113      -10.02188        0.95626
C         -6.19442       -9.96653        2.26075
C         -6.91391      -11.01513        2.98084
N         -7.26360      -12.13149        2.31767
C         -7.96694      -13.02446        3.04600
C         -8.30432      -12.83338        4.37318
N         -7.90278      -11.71297        4.99986
N         -7.20108      -10.78151        4.28507
C         -9.00672      -13.85456        5.14291
C         -9.85374      -13.73199        6.17538
C        -10.13650      -14.99799        6.92614
O         -9.91590      -16.13790        6.57249
C        -10.68954      -14.58393        8.21934
C        -10.83362      -13.18515        8.27224
C        -10.47656      -12.62819        6.92739
C        -10.91305      -11.44183        6.43444
C        -11.55266      -10.45000        7.23402
N        -12.07462       -9.64533        7.88861
C        -10.90512      -11.16169        5.03617
N        -10.96454      -10.97716        3.89157
C        -11.30035      -12.62515        9.45404
C        -11.64649      -13.46918       10.52425
C        -11.50892      -14.86131       10.42114
C        -11.01261      -15.43951        9.26123
Br       -12.00518      -15.96296       11.87402
H         -3.92008        4.12445       -1.87858
H         -4.76556        4.58178       -4.11205
H         -5.96970        0.46053       -4.59006
H         -3.31812       -1.03955        0.86238
H         -2.58560       -5.05975       -1.60819
H         -2.48047       -7.23319       -2.62302
H         -5.17724       -6.69557       -3.66981
H         -3.79508       -6.37873       -4.46231
H         -3.03195       -8.69957       -4.52430
H         -4.64288       -9.03429       -3.88670
H         -2.00193       -9.73952       -2.54087
H         -3.02397      -10.87975       -3.39843
H         -4.70835      -10.89658       -1.74432
H         -3.29323      -10.76296        0.39393
H         -2.97516      -11.89770       -0.72843
H         -6.11308      -10.91119        0.37738
H         -5.95995       -9.10228        2.87388
H         -8.26254      -13.92016        2.50925
H         -8.71668      -14.86243        4.83824
H        -11.42066      -11.55623        9.59658
H        -12.03378      -13.02742       11.44147
H        -10.88117      -16.51228        9.15916
