97

C          1.09334       -0.88808        0.55292
C          0.39468       -0.00823       -0.28850
F          1.05340        1.01471       -0.88035
C         -0.97730       -0.19146       -0.53413
F         -1.64351        0.63692       -1.37054
C         -1.65939       -1.24345        0.06824
C         -0.94889       -2.09846        0.88830
C          0.40237       -1.96095        1.14000
C          0.84694       -3.05653        2.05287
C          1.98809       -2.91508        2.84306
C          2.86005       -1.75489        2.78164
N          3.58986       -0.84698        2.78314
C          2.46022       -3.70829        3.95512
N          2.97478       -4.20989        4.86045
C         -0.33517       -4.06369        1.95624
C         -1.46956       -3.25764        1.52369
O         -2.64204       -3.60383        1.48199
C         -0.60377       -5.40285        1.99671
C          0.29730       -6.54384        2.05395
C         -0.15454       -7.76974        2.59209
C          0.70502       -8.86979        2.66032
C          2.01278       -8.76754        2.16016
C          2.42960       -7.58321        1.55813
C          1.56696       -6.47673        1.49401
N          2.04385       -5.39954        0.82293
S          3.55487       -5.88267        0.38754
N          3.65531       -7.39950        1.00726
C          2.91984       -9.88759        2.23358
N          3.94230      -10.09015        1.35013
C          4.47490      -11.19978        1.77815
C          5.47292      -11.97859        1.39269
C          5.42375      -12.98093        2.34791
N          4.43715      -12.80169        3.25814
C          3.88687      -11.68466        2.84179
C          2.86970      -10.90104        3.20608
C          6.28192      -14.07507        2.37765
C          7.21353      -14.24388        1.45871
C          8.05138      -15.39856        1.50511
S          9.60321      -15.33529        0.94577
C          7.75770      -16.67149        1.99720
C          6.44120      -17.19169        2.52801
O          5.38320      -16.58803        2.50915
C          6.41779      -18.54678        3.00313
C          5.38503      -19.25437        3.56284
N          5.83637      -20.49515        3.83125
C          5.05889      -21.57269        4.41964
C          5.17257      -21.53775        5.93771
C          7.13033      -20.56707        3.44388
C          7.50276      -19.36126        2.92915
C          8.78429      -18.93625        2.37255
O          9.71729      -19.71765        2.30875
C          8.87796      -17.53125        1.90431
C          9.99167      -16.91310        1.33640
C         11.30381      -17.48147        1.07791
C         12.25331      -16.72389        0.51551
C         13.56745      -17.23998        0.23922
C         13.98310      -18.53832        0.51758
C         15.27269      -18.72239        0.09992
C         15.81659      -17.61131       -0.46988
S         14.78008      -16.31279       -0.49440
C         17.17656      -17.74667       -0.84713
C         17.70472      -18.97919       -0.61490
Ge        16.41866      -20.25434        0.09425
C         17.23608      -21.22573        1.55795
C         15.15687      -21.47375       -0.76165
C         19.07903      -19.00322       -0.80673
C         19.56588      -17.75679       -1.22868
S         18.30639      -16.63220       -1.35639
H          2.14560       -0.72292        0.68824
H         -2.71133       -1.41766       -0.11757
H         -1.63774       -5.72016        1.82922
H         -1.16330       -7.87433        2.97960
H          0.34553       -9.80369        3.08301
H          4.28042       -9.58423        0.50319
H          6.13364      -11.84620        0.54878
H          4.15653      -13.38649        4.07755
H          2.22321      -11.06596        4.05411
H          6.12298      -14.71306        3.21533
H          7.40109      -13.49357        0.69561
H          4.37994      -18.89248        3.75835
H          5.43771      -22.54329        4.03649
H          3.99400      -21.46517        4.11973
H          6.23489      -21.64866        6.24181
H          4.58498      -22.37140        6.37628
H          4.77893      -20.57516        6.32774
H          7.77287      -21.42750        3.52076
H         11.49152      -18.51118        1.34143
H         12.07169      -15.69216        0.23434
H         13.37857      -19.30569        0.97393
H         18.00064      -20.59646        2.05333
H         17.74064      -22.11007        1.10843
H         16.47190      -21.57810        2.27711
H         14.59246      -20.96039       -1.56699
H         14.42160      -21.78233        0.01814
H         15.66395      -22.37875       -1.14313
H         19.70085      -19.85930       -0.60390
H         20.60089      -17.51398       -1.40599
