93

C        -10.95588       -1.62307        0.66871
C        -10.33177       -2.66339        1.27409
C        -10.71309       -4.01995        1.08376
N        -11.00032       -5.13163        0.90227
C         -9.21975       -2.48542        2.15731
N         -8.31079       -2.36379        2.87098
C        -12.19167       -1.68396       -0.17904
C        -12.59200       -0.37681       -0.47072
C        -13.64258       -0.04244       -1.31590
C        -14.35344       -1.09880       -1.91815
C        -14.00469       -2.41709       -1.58871
C        -12.93262       -2.73094       -0.71203
S        -15.03076       -3.54698       -2.40034
C        -15.84877       -2.31641       -3.21599
C        -15.41477       -1.06175       -2.88422
Br       -17.21423       -2.63883       -4.45641
C        -11.70678        0.60104        0.16026
O        -11.89460        1.79963        0.17856
C        -10.56643       -0.19252        0.72116
C         -9.36903        0.37267        0.95014
C         -9.05544        1.77659        0.68185
C         -8.47961        2.23139       -0.51012
F         -8.23586        1.33305       -1.48159
C         -8.09586        3.57740       -0.73507
F         -7.42799        3.80142       -1.87661
C         -8.30119        4.63598        0.18454
C         -8.93970        4.20524        1.38251
C         -9.29987        2.78815        1.62673
N         -9.84765        2.69431        2.84952
N         -9.91507        3.97321        3.22980
N         -9.30718        4.90454        2.47675
C        -10.66980        4.33994        4.40305
C         -7.76885        6.01331        0.11205
C         -7.54331        6.81243       -0.94553
C         -6.82472        8.07196       -0.87539
C         -6.37823        8.50191       -2.06833
C         -6.72353        7.60445       -3.15751
S         -7.96837        6.48102       -2.59750
C         -6.12612        7.50840       -4.36143
C         -5.02900        8.30526       -4.88054
C         -4.42145        7.75654       -5.94745
C         -4.99165        6.48266       -6.34603
S         -6.49176        6.21744       -5.49662
C         -4.40305        5.60526       -7.17775
C         -4.86490        4.25753       -7.54249
N         -6.16934        3.96326       -7.45681
C         -6.53189        2.69729       -7.70712
C         -5.64292        1.71939       -8.07142
C         -4.33109        2.12391       -8.19185
N         -3.92285        3.38552       -7.93498
C         -3.30037        1.16105       -8.61299
C         -2.17368        1.55809       -9.22537
C         -1.12594        0.68589       -9.69860
C         -0.36417       -0.17059       -9.00347
C         -0.32622       -0.59241       -7.59594
C         -0.59983        0.16247       -6.50394
C         -0.75133       -0.39053       -5.20169
N         -0.92598       -0.86084       -4.15509
C         -0.65588        1.58758       -6.56125
N         -0.60047        2.74679       -6.56179
C          0.34178       -1.93457       -7.57399
C          0.87399       -2.18031       -8.84643
C          0.50078       -1.11121       -9.78343
O          0.80986       -1.04867      -10.95522
C          1.66847       -3.27664       -9.16568
C          1.96985       -4.19119       -8.13268
C          1.43420       -3.96194       -6.85644
C          0.60920       -2.84628       -6.55920
S          1.93288       -5.18592       -5.74282
C          2.83654       -5.98238       -6.92387
C          2.78270       -5.37695       -8.15081
Br         3.81717       -7.54119       -6.58214
H        -13.86833        0.99824       -1.53354
H        -12.71629       -3.77526       -0.52255
H        -15.81632       -0.14891       -3.30832
H         -8.49262       -0.19630        1.23574
H        -11.24248        3.47331        4.74660
H        -11.35643        5.14602        4.13366
H         -9.97111        4.66091        5.17744
H         -7.45796        6.38661        1.08882
H         -6.61443        8.57183        0.06104
H         -5.77107        9.38579       -2.20007
H         -4.71348        9.23676       -4.43261
H         -3.56713        8.19234       -6.44810
H         -3.43041        5.84271       -7.59961
H         -7.59301        2.49375       -7.59904
H         -5.97277        0.71074       -8.27541
H         -3.50907        0.11225       -8.42665
H         -2.02778        2.61317       -9.45794
H         -0.96392        0.77155      -10.77630
H          2.06076       -3.40412      -10.17143
H          0.24867       -2.73322       -5.54428
H          3.30088       -5.74501       -9.02837
