96

C         -1.61960        0.27778       -1.39460
C         -2.15693       -0.94598       -1.62254
C         -1.42514       -2.01866       -2.21020
N         -0.83489       -2.89207       -2.68983
C         -3.52259       -1.25272       -1.35393
N         -4.63498       -1.50858       -1.14215
C         -0.24298        0.73539       -1.77194
C         -0.18599        2.12805       -1.65666
C          0.94270        2.89277       -1.93354
C          2.10306        2.21594       -2.36856
C          2.06127        0.81832       -2.48371
C          0.90186        0.05861       -2.17862
S          3.57703        0.19429       -3.03212
C          4.25595        1.73676       -3.11313
C          3.39539        2.73065       -2.73082
Br         6.01552        2.05303       -3.67208
C         -1.46468        2.66205       -1.17361
O         -1.74557        3.83600       -1.03130
C         -2.32431        1.46996       -0.88281
C         -3.44925        1.62827       -0.16848
N         -4.02330        2.82141        0.22056
C         -5.15693        3.03350        0.94410
S         -5.74924        1.94370        2.14383
C         -7.01735        2.98395        2.54632
N         -7.91430        2.60512        3.58638
O         -9.11198        2.53225        3.28723
O         -7.42289        2.40598        4.70476
C         -7.06509        4.12524        1.78805
C         -5.98491        4.14584        0.85249
C         -5.81667        5.17699       -0.12643
C         -6.36479        5.09138       -1.34797
C         -6.32847        6.15704       -2.32601
C         -7.42907        6.73026       -2.83578
C         -7.44153        7.77421       -3.83055
C         -8.67223        8.21462       -4.13097
C         -9.73210        7.55195       -3.38954
S         -9.05056        6.32237       -2.33376
C        -11.05137        7.80090       -3.47433
C        -11.68641        8.78541       -4.32581
C        -13.02350        8.76662       -4.26339
C        -13.55046        7.75179       -3.37365
S        -12.27032        6.92976       -2.54368
C        -14.86449        7.52852       -3.26376
C        -15.55745        6.50934       -2.53543
C        -16.83399        6.62977       -1.97261
C        -17.39873        7.90732       -1.66852
N        -17.78671        8.96407       -1.39218
C        -17.42352        5.36224       -1.89452
C        -16.54578        4.34257       -2.01115
S        -15.01278        4.84835       -2.43456
S        -17.24185        2.80905       -1.88061
C        -18.76008        3.53935       -1.94286
C        -18.72963        4.88991       -1.93421
C        -19.96351        5.48571       -2.24860
C        -20.30674        6.86919       -2.34728
N        -20.64456        7.97159       -2.46275
C        -20.79432        4.49207       -2.78899
S        -20.29484        2.93246       -2.20069
C        -21.86930        4.67031       -3.71850
C        -21.64797        4.61911       -5.04891
C        -20.51318        4.16577       -5.87265
C        -19.97984        2.91788       -5.89773
C        -20.59855        1.83153       -5.21014
N        -21.12915        0.92762       -4.71762
C        -18.91090        2.53689       -6.75765
N        -18.02512        2.23745       -7.44668
C        -20.41954        5.09536       -7.03476
C        -21.63854        5.77696       -7.12728
C        -22.48231        5.49816       -5.94016
O        -23.58314        5.95197       -5.71373
C        -21.97691        6.58577       -8.20704
C        -21.04733        6.69249       -9.27181
C        -19.80210        6.05672       -9.14636
C        -19.45131        5.28257       -8.01466
S        -18.81840        6.32028      -10.54252
C        -20.03852        7.19298      -11.31371
C        -21.16000        7.35595      -10.54402
Br       -19.86949        7.86479      -13.05436
H          0.92635        3.97267       -1.81278
H          0.95626       -1.01937       -2.27232
H          3.65790        3.78174       -2.71199
H         -4.03803        0.77653        0.15340
H         -3.58002        3.63855       -0.21789
H         -7.82363        4.89382        1.88597
H         -5.27194        6.06915        0.17149
H         -6.95132        4.21284       -1.61983
H         -5.34240        6.48094       -2.64841
H         -6.53914        8.15519       -4.28816
H         -8.85757        8.99049       -4.85994
H        -11.14040        9.46512       -4.96363
H        -13.65805        9.42145       -4.84630
H        -15.51738        8.18762       -3.83743
H        -22.76111        5.17690       -3.34612
H        -22.94347        7.08073       -8.24922
H        -18.47204        4.81726       -7.98086
H        -22.04062        7.89505      -10.87206
