72

O         -1.04110        6.24837       -2.00881
N         -1.15700        4.87348       -1.86280
C          0.01167        4.47219       -1.34755
C          0.16393        3.09532       -0.98934
N          0.30871        1.99607       -0.65114
C          0.91253        5.54557       -1.16861
C          0.18498        6.64021       -1.57761
C          0.47291        8.02975       -1.64366
N          0.71106        9.16159       -1.70589
C          2.25378        5.57940       -0.66012
O          2.74709        6.57474       -0.14167
O          2.93517        4.39935       -0.83043
N          4.28165        4.51320       -0.43662
C          5.09802        3.42648       -0.47292
S          4.84126        2.13571       -1.59124
C          6.17272        1.28535       -1.00355
N          6.47755        0.00125       -1.54330
O          6.54511       -0.93159       -0.73341
O          6.68309       -0.06716       -2.76132
C          6.83518        1.92543        0.01224
C          6.23452        3.19706        0.30052
C          6.70527        4.11496        1.30476
C          7.95006        4.14505        1.80645
C          8.36960        5.07306        2.84054
C          9.44503        4.92457        3.62980
C          9.85180        5.87363        4.63812
C         10.98308        5.53275        5.27162
C         11.57309        4.29055        4.79742
S         10.51611        3.54539        3.60361
C         12.77780        3.79506        5.14023
C         13.72280        4.41137        6.05364
C         14.92781        3.82603        6.06188
C         15.02332        2.69934        5.16582
S         13.48411        2.33110        4.43970
C         16.16027        2.04956        4.88305
N         16.36767        1.02112        3.98265
C         17.54636        0.41240        3.65340
S         18.91892        0.42414        4.71763
C         19.82917       -0.52352        3.66926
N         21.14164       -0.94744        4.04581
O         21.38461       -2.15267        3.91349
O         21.92707       -0.07613        4.43510
C         19.17335       -0.84561        2.51169
C         17.84338       -0.30024        2.48821
C         16.92392       -0.47724        1.39214
C         17.23752       -1.04016        0.21619
O         16.28219       -1.29489       -0.77142
C         16.77092       -1.93793       -1.88345
O         17.94898       -2.00289       -2.20778
C         15.74908       -2.64330       -2.60566
C         15.89779       -3.80883       -3.39210
N         14.73073       -4.23144       -3.89296
O         13.78660       -3.32008       -3.44002
C         14.40230       -2.38397       -2.67456
C         13.58479       -1.36372       -2.13343
N         12.94903       -0.50797       -1.67527
C         17.08068       -4.57936       -3.63231
N         18.04530       -5.20541       -3.79259
H          4.43799        5.26054        0.24376
H          7.69689        1.50457        0.51905
H          5.98461        4.82390        1.70601
H          8.70306        3.45390        1.43437
H          7.75106        5.96019        2.96568
H          9.29711        6.77870        4.84629
H         11.42752        6.14398        6.04408
H         13.49493        5.28673        6.64467
H         15.76588        4.17669        6.64835
H         17.07139        2.38544        5.37195
H         15.52023        0.79338        3.46355
H         19.62881       -1.44661        1.73333
H         15.89623       -0.14738        1.52558
H         18.23018       -1.39816       -0.02696
