86

C         -9.80923      -10.15541       -0.10120
C         -9.09089      -11.11732        0.48090
C         -9.51463      -11.92228        1.59577
C         -8.49255      -12.54821        2.19924
C         -7.19546      -12.24037        1.60358
S         -7.44470      -11.47137        0.03324
C         -5.99416      -12.33524        2.20922
C         -5.78444      -12.71034        3.59644
C         -4.57271      -12.38004        4.06553
C         -3.72004      -11.75326        3.08185
S         -4.45864      -11.80026        1.49921
C         -2.55036      -11.15628        3.36583
N         -1.66910      -10.51684        2.51710
C         -0.50944       -9.84208        2.79633
S         -0.13020       -9.15709        4.34431
C          1.28999       -8.45401        3.75907
N          2.05913       -7.58195        4.58256
O          3.25445       -7.86893        4.72288
O          1.49107       -6.57272        5.01753
C          1.57981       -8.78350        2.46384
C          0.49749       -9.51118        1.88865
C          0.43988       -9.76121        0.48661
C          0.03988      -10.89950       -0.09282
C         -0.24046      -10.99904       -1.49571
C          0.50821      -10.59658       -2.53682
C          1.86568       -9.94951       -2.51001
C         -0.10008      -10.67257       -3.89541
N          0.59064      -11.65104       -4.71244
C          0.30059      -11.77789       -6.05080
C         -0.39564      -10.87276       -6.74347
C         -0.82495      -11.05815       -8.06438
S         -0.95591       -9.67205       -9.05188
C         -1.53215      -10.58999      -10.36794
C         -1.69498      -11.91445      -10.03646
C         -1.26637      -12.19395       -8.70778
C         -2.23229      -12.90645      -10.91556
N         -2.70288      -13.73221      -11.59437
C         -1.70474       -9.91768      -11.59450
C         -0.69166       -9.97659      -12.46444
C         -0.76257       -9.34867      -13.74839
C         -0.56539      -10.00048      -14.89993
C         -0.51181       -9.47020      -16.27145
C         -1.18386       -8.38669      -16.74228
C         -1.14326       -8.00609      -18.11045
N         -1.11199       -7.68764      -19.22752
C         -2.04025       -7.58981      -15.92496
N         -2.73360       -6.94133      -15.25796
C          0.26195      -10.46468      -17.06292
C          0.38643      -11.63666      -16.31251
C         -0.16780      -11.44855      -14.96783
O         -0.21889      -12.30056      -14.10729
C          1.04111      -12.78287      -16.74746
C          1.65287      -12.73603      -18.01764
C          1.57074      -11.54940      -18.76370
C          0.87757      -10.39990      -18.30400
S          2.42213      -11.69559      -20.25965
C          2.87448      -13.28618      -19.92000
C          2.41334      -13.73763      -18.71306
Br         3.91459      -14.32254      -21.08095
H        -10.80691       -9.90412        0.24099
H         -9.39483       -9.55326       -0.90410
H        -10.54452      -11.97598        1.92157
H         -8.61830      -13.17461        3.07090
H         -6.55906      -13.12993        4.22263
H         -4.26688      -12.51652        5.09311
H         -2.21266      -11.15225        4.39841
H         -1.94389      -10.61532        1.53868
H          2.46527       -8.44892        1.93395
H          0.70309       -8.91147       -0.14091
H         -0.25113      -11.76246        0.50199
H         -1.21963      -11.44296       -1.69305
H          2.23811       -9.73712       -1.50861
H          1.83476       -8.99872       -3.05606
H          2.60439      -10.59321       -2.99673
H         -0.05668       -9.66887       -4.33297
H         -1.16230      -10.95136       -3.85227
H          1.56546      -11.82959       -4.48489
H          0.67067      -12.70436       -6.48458
H         -0.67108       -9.92876       -6.28844
H         -1.30983      -13.16820       -8.23404
H         -2.62360       -9.37318      -11.78853
H          0.21159      -10.54542      -12.23588
H         -0.95831       -8.28278      -13.70291
H          1.10403      -13.66293      -16.11256
H          0.87878       -9.50697      -18.91876
H          2.60906      -14.72934      -18.32294
