119

C          3.51955        2.56705       -1.24474
C          4.02184        3.02980       -2.63459
C          4.95425        2.29283       -3.38389
C          5.44055        2.75407       -4.61002
C          5.01753        3.97830       -5.11186
C          4.10603        4.73939       -4.38938
C          3.61893        4.27489       -3.16432
C          4.39278        3.07068       -0.08044
C          3.82633        3.34588        1.18206
C          4.60928        3.80668        2.24411
C          5.97631        3.99544        2.07281
C          6.56057        3.72745        0.84009
C          5.77928        3.26671       -0.22269
C          3.16866        1.07455       -1.13270
C          1.82656        0.95373       -1.16616
C          1.22612        2.26669       -1.30545
C         -0.02655        2.65955       -1.61909
C         -1.07589        1.76383       -1.94487
N         -1.93988        1.04721       -2.23778
C         -0.32517        4.05560       -1.69187
N         -0.56680        5.19384       -1.74996
O          2.21426        3.22048       -1.08335
C          1.08403       -0.23653       -0.94433
N          0.44937       -1.17879       -0.72167
C          4.02681       -0.05707       -0.89752
C          4.56738       -0.53244        0.30420
C          5.44393       -1.62643        0.09142
C          5.45533       -2.01095       -1.23042
S          4.50123       -1.09050       -2.22937
C          6.26802       -3.15893       -1.36937
C          6.79315       -3.48541       -0.14206
C          6.31258       -2.52899        0.85741
C          6.61396       -2.48836        2.17053
C          7.47214       -3.44333        2.77586
N          8.17151       -4.22840        3.27789
C          6.11169       -1.46399        3.01509
N          5.71038       -0.61851        3.70221
C          7.61312       -4.63317       -0.21641
C          7.63458       -5.18617       -1.50526
S          6.64691       -4.22277       -2.58369
C          8.31056       -6.42791       -1.98340
C          8.84475       -6.62682       -3.27837
C          9.47206       -7.87179       -3.68138
N          9.87522       -8.01873       -4.96267
C          9.74131       -6.98896       -5.82158
C          9.19603       -5.79793       -5.42596
N          8.75895       -5.60961       -4.16459
F          9.06746       -4.78640       -6.29511
F         10.16546       -7.15902       -7.08084
C          9.68328       -8.95508       -2.78776
C          9.15305       -8.79238       -1.47603
C          8.43856       -7.52347       -1.07725
N          7.96326       -7.58486        0.18019
S          8.41010       -9.03532        0.82320
N          9.21871       -9.67657       -0.46384
C         10.42469      -10.20839       -3.12081
C         10.27430      -11.52271       -2.64213
C         11.21867      -12.41373       -3.21416
C         12.04454      -11.75433       -4.08779
S         11.78525      -10.12878       -4.21921
C         12.98931      -12.65692       -4.60628
C         12.77962      -13.90148       -4.07055
C         11.62976      -13.82453       -3.15391
C         11.08581      -14.81300       -2.41759
C         11.58243      -16.14290       -2.48256
N         11.99604      -17.22521       -2.55241
C          9.98861      -14.57686       -1.54459
N          9.09606      -14.38335       -0.82811
C         13.76399      -14.82033       -4.52870
C         14.64404      -14.24257       -5.46493
S         14.30744      -12.52318       -5.58657
C         15.74373      -14.82705       -6.21175
C         16.07803      -14.45463       -7.46816
C         17.24719      -15.19300       -7.91068
C         17.82723      -15.29225       -9.12342
C         17.31417      -14.68867      -10.30307
N         16.88768      -14.22651      -11.28218
C         19.00504      -16.08510       -9.27262
N         19.96705      -16.71878       -9.39261
O         17.76145      -15.89968       -6.83045
C         16.75243      -15.90316       -5.76684
C         16.25145      -17.36370       -5.79917
C         17.16113      -18.41792       -5.55765
C         16.77216      -19.75675       -5.66680
C         15.46418      -20.07587       -6.01426
C         14.54967      -19.05808       -6.26172
C         14.94141      -17.71870       -6.16866
C         17.47712      -15.48271       -4.47057
C         18.58997      -14.61359       -4.51549
C         19.21897      -14.17177       -3.34869
C         18.74536      -14.58094       -2.10793
C         17.65917      -15.44984       -2.03556
C         17.03103      -15.89911       -3.20333
C         15.47943      -13.43925       -8.25948
N         15.03096      -12.58317       -8.90080
H          5.36791        1.36537       -3.01083
H          6.16804        2.16182       -5.16035
H          5.41224        4.34667       -6.05494
H          3.78309        5.70577       -4.76921
H          2.93085        4.91916       -2.61747
H          2.75919        3.22177        1.35536
H          4.14989        4.02387        3.20572
H          6.58530        4.35512        2.89812
H          7.62717        3.88431        0.69906
H          6.28182        3.08626       -1.16931
H          4.32965       -0.08805        1.26451
H          8.14401       -5.07917        0.61602
H          9.52457      -11.79374       -1.90823
H         13.83634      -15.85610       -4.21865
H         18.19995      -18.20237       -5.30646
H         17.49507      -20.55078       -5.49315
H         15.15980      -21.11583       -6.10413
H         13.52860      -19.30614       -6.54307
H         14.19345      -16.97123       -6.41501
H         18.99113      -14.26669       -5.46573
H         20.07725      -13.50623       -3.41098
H         19.22546      -14.22640       -1.19894
H         17.29984      -15.77982       -1.06362
H         16.19277      -16.58606       -3.10448
