87

C         -0.77839       -1.12998        5.51484
C          0.15102       -0.18805        5.04852
N          0.84387        0.61770        6.07566
O          0.52456        0.43437        7.25914
O          1.70741        1.42722        5.71980
C          0.37749       -0.04952        3.66504
C          1.37686        0.90080        3.05496
O          2.64216        0.26313        3.00402
C         -0.35379       -0.89164        2.78360
C         -1.30134       -1.83270        3.23675
C         -1.48833       -1.93475        4.62201
C         -2.07368       -2.67034        2.28232
C         -2.02272       -2.71186        0.88204
C         -2.93539       -3.65233        0.34952
C         -3.63765       -4.28485        1.34578
S         -3.26526       -3.80358        2.88102
C         -4.52533       -5.21249        0.77073
C         -4.39437       -5.17029       -0.59692
C         -3.37375       -4.17648       -0.94710
C         -2.93739       -3.82711       -2.17267
C         -3.46002       -4.42988       -3.34832
N         -3.89477       -4.92621       -4.30402
C         -1.93483       -2.83593       -2.35364
N         -1.11755       -2.02321       -2.49287
C         -5.27385       -6.08488       -1.22227
C         -6.04373       -6.78153       -0.28224
S         -5.62933       -6.30564        1.34115
C         -7.05369       -7.79673       -0.52470
C         -8.16824       -8.12033        0.22643
C         -8.92892       -9.21477       -0.33436
N        -10.06027       -9.71006        0.24555
C        -10.39283       -9.04946        1.39287
C        -11.62778       -9.52361        2.06295
O        -12.32027      -10.43119        1.61986
C        -12.03061       -8.86110        3.31802
C        -11.32241       -7.86118        3.84290
C        -10.09488       -7.35520        3.19917
O         -9.48113       -6.43668        3.72735
C         -9.66046       -7.99322        1.93312
N         -8.52499       -7.47711        1.37607
C         -8.38909       -9.70604       -1.50855
S         -6.95844       -8.82801       -1.90524
C         -8.87321      -10.77641       -2.36400
C         -8.13222      -11.62722       -3.19363
C         -8.96896      -12.54849       -3.87026
C        -10.28956      -12.36064       -3.53684
S        -10.57681      -11.12590       -2.47347
C        -11.08164      -13.30169       -4.22436
C        -10.26903      -14.09344       -5.00057
C         -8.87620      -13.66020       -4.82463
C         -7.76250      -14.15521       -5.40642
C         -7.83340      -15.23840       -6.32225
N         -7.90355      -16.12047       -7.07018
C         -6.47433      -13.62011       -5.14428
N         -5.41775      -13.17263       -4.92604
C        -11.02954      -15.06026       -5.70693
C        -12.39942      -14.95997       -5.41777
S        -12.70015      -13.64719       -4.30919
C        -13.53826      -15.76444       -5.92661
C        -13.48449      -16.34460       -7.20111
C        -14.54586      -17.11901       -7.68244
C        -15.68209      -17.32661       -6.88582
C        -15.80646      -16.74585       -5.61788
C        -14.70567      -15.97940       -5.15839
C        -16.98604      -16.86153       -4.67973
O        -18.12994      -17.50132       -5.20709
N        -16.72225      -18.15967       -7.46353
O        -17.33947      -17.68093       -8.42608
O        -16.87932      -19.29130       -6.99073
H         -0.97237       -1.25727        6.57913
H          1.44602        1.86229        3.56760
H          1.08447        1.16290        2.03278
H          3.10059        0.47673        3.83710
H         -0.16236       -0.79530        1.71551
H         -2.19160       -2.64311        5.05526
H         -1.35481       -2.08824        0.30243
H         -5.37143       -6.24077       -2.28976
H        -12.93451       -9.23297        3.78896
H        -11.61638       -7.37324        4.76625
H         -7.05362      -11.57065       -3.27589
H        -10.63268      -15.80898       -6.38180
H        -12.61983      -16.19750       -7.84503
H        -14.48319      -17.55692       -8.67754
H        -14.77274      -15.54778       -4.15850
H        -17.29698      -15.86002       -4.36035
H        -16.67723      -17.41725       -3.78721
H        -18.48462      -16.96955       -5.93911
