97

C         -8.83365        1.06830       -1.84908
C         -9.56194        1.96709       -1.15032
C        -10.22412        1.61384        0.06042
N        -10.74694        1.30293        1.04820
C         -9.81803        3.27349       -1.66347
N        -10.07841        4.31346       -2.11244
C         -8.70780       -0.38640       -1.60730
C         -8.47298       -1.01181       -2.84515
C         -8.23069       -2.36813       -2.96819
C         -8.12584       -3.12153       -1.79104
C         -8.28841       -2.49036       -0.52099
C         -8.61352       -1.12376       -0.43928
C         -8.07134       -3.23800        0.64456
C         -7.71215       -4.58429        0.57148
C         -7.58823       -5.20806       -0.66680
C         -7.79744       -4.48329       -1.84100
C         -8.26311        0.01000       -3.89961
O         -8.07067       -0.18124       -5.08031
C         -8.17964        1.29870       -3.13682
C         -7.18608        2.14802       -3.45256
C         -6.49951        3.02435       -2.50159
C         -6.51235        4.36234       -2.70558
C         -5.80152        5.31870       -1.84865
C         -5.16459        4.96331       -0.70672
C         -5.25127        3.54466       -0.32405
C         -4.80736        3.01059        0.83448
Si        -4.84123        1.13346        0.78630
C         -5.58603        1.26858       -0.93651
C         -5.79192        2.55457       -1.29214
C         -4.27662        5.91362       -0.09273
C         -4.49321        6.94937        0.78844
C         -3.26069        7.54064        1.29105
N         -3.25385        8.51491        2.24717
C         -4.50358        8.81892        2.69808
C         -4.55086        9.69981        3.89397
O         -3.55114       10.05459        4.50749
C         -5.87592       10.12515        4.38433
C         -7.00176        9.71681        3.79931
C         -6.99185        8.79279        2.64840
O         -8.05556        8.48307        2.12743
C         -5.68210        8.29293        2.16744
N         -5.73851        7.33091        1.19564
C         -2.10445        6.98867        0.75188
S         -2.58762        5.78605       -0.42057
C         -0.68739        7.21381        1.02475
C          0.19312        7.09558       -0.00746
C          1.64245        7.22454        0.11670
C          2.26225        7.58325        1.26167
C          1.39353        7.86874        2.40857
C          1.81769        8.34686        3.59939
Si         0.43333        8.38103        4.85715
C         -0.69092        7.70385        3.51991
C         -0.07142        7.58156        2.32821
C          3.71857        7.64703        1.26674
C          4.54856        6.94090        2.05199
C          5.99232        7.15310        2.27157
C          6.91453        7.49474        1.34149
C          8.30413        7.58158        1.63629
N          9.43356        7.65720        1.88148
C          6.56974        7.72416       -0.02446
N          6.28435        7.91888       -1.12891
C          6.25514        6.73704        3.67919
C          5.15209        5.99879        4.13228
C          4.10141        5.96248        3.10272
O          3.11704        5.25610        3.13011
C          5.05403        5.47624        5.41230
C          6.09625        5.72950        6.30940
C          7.22033        6.49524        5.88708
C          7.29051        6.99207        4.56734
C          8.24246        6.76418        6.81016
C          8.16227        6.29555        8.12274
C          7.06313        5.54629        8.53252
C          6.03706        5.26239        7.63145
H         -8.03657       -2.80141       -3.94547
H         -8.70325       -0.64864        0.53363
H         -8.15797       -2.77305        1.62484
H         -7.52623       -5.14582        1.48376
H         -7.31462       -6.25897       -0.72020
H         -7.67834       -4.98916       -2.79722
H         -6.68373        2.04907       -4.41578
H         -7.03037        4.78801       -3.56246
H         -5.74610        6.33493       -2.23023
H         -4.39546        3.53539        1.68332
H         -5.83148        0.37775       -1.49217
H         -5.88360       10.78613        5.24482
H         -7.97797       10.03836        4.14639
H         -0.12618        6.86520       -1.02002
H          2.21821        6.98135       -0.77383
H          2.82229        8.61933        3.87968
H         -1.72360        7.52817        3.75898
H          4.09665        8.42028        0.60269
H          4.16642        4.92138        5.70316
H          8.14533        7.59926        4.28498
H          9.11093        7.34939        6.51698
H          8.96047        6.51928        8.82629
H          7.00297        5.18601        9.55592
H          5.18391        4.67994        7.97491
