162

C         -0.87832       -2.33514       -1.56181
C         -2.07434       -1.62031       -1.37841
C         -3.28026       -2.03306       -2.18028
C         -2.11336       -0.51399       -0.48507
C         -3.32388        0.37884       -0.41686
C         -1.02222       -0.25837        0.36448
C          0.11531       -1.03527        0.20824
C          0.22674       -1.98789       -0.80936
C          1.63639       -2.41442       -0.84699
C          2.35224       -2.49262       -1.99106
C          1.73216       -2.66841       -3.27181
N          1.22310       -2.84010       -4.28402
C          3.77245       -2.32382       -2.00140
N          4.91950       -2.17739       -1.99493
C          2.15710       -2.20487        0.50649
C          1.33069       -1.06871        1.06427
O          1.56600       -0.39344        2.04396
C          2.86195       -2.98774        1.34687
C          3.30875       -4.33099        1.09656
C          3.53138       -5.35616        2.00721
C          4.00011       -6.60163        1.41286
C          4.18410       -7.91472        1.91489
C          3.51298       -8.29706        3.20179
C          2.30065       -7.86647        3.73655
C          1.94960       -8.50192        4.97393
C          2.88691       -9.43213        5.36148
S          4.23467       -9.40287        4.31814
C          2.85815      -10.35940        6.53436
C          4.91678       -8.84845        1.12973
C          5.53724       -8.48230       -0.08165
C          5.21193       -7.22862       -0.63717
C          4.38672       -6.35847        0.09345
S          3.56732       -4.97686       -0.45328
C          5.74554       -6.82251       -1.97664
C          6.18529       -5.58031       -2.42081
C          6.70434       -5.59050       -3.75364
C          6.69989       -6.85365       -4.29880
S          5.84607       -7.94096       -3.29641
C          7.28578       -7.30145       -5.59798
C          6.43343       -9.51395       -0.53973
C          6.30094      -10.68847        0.14561
S          5.15388      -10.53843        1.38353
C          6.97502      -11.92289       -0.10801
C          7.34415      -12.49253       -1.29691
C          7.97721      -13.80148       -1.16041
C          8.54629      -14.67772       -2.12360
C          8.68411      -14.24099       -3.55883
C          8.60303      -14.96877       -4.74363
C          8.78207      -14.18814       -5.92997
C          8.96433      -12.85612       -5.64638
S          9.08473      -12.60337       -3.96639
C          9.09533      -11.70779       -6.59032
C          8.98342      -15.96561       -1.71746
C          8.81126      -16.43755       -0.39692
C          8.30496      -15.54349        0.60184
C          7.95201      -14.21958        0.18539
S          7.52087      -12.86006        1.15771
C          8.16467      -16.00513        2.06566
C          8.45212      -17.20972        2.71226
C          8.15512      -17.25572        4.11764
C          7.65298      -16.06783        4.57131
S          7.53044      -14.96885        3.30836
C          7.22028      -15.67175        5.93825
C          9.18980      -17.82902       -0.34458
C          9.75624      -18.34036       -1.48352
S          9.81386      -17.15594       -2.68102
C         10.22770      -19.68539       -1.68345
C         10.13682      -20.43320       -2.82758
C         10.63292      -21.78925       -2.72427
C         10.67505      -22.84844       -3.68093
C         10.23196      -22.61734       -5.10535
C          9.62639      -23.46455       -6.03149
C          9.39877      -22.87389       -7.31691
C          9.79581      -21.55944       -7.35728
S         10.57120      -21.11741       -5.90950
C          9.66886      -20.58025       -8.47716
C         11.19037      -24.11003       -3.29404
C         11.74650      -24.31683       -2.01982
C         11.64277      -23.28853       -1.03977
C         11.10875      -22.02802       -1.41951
S         10.98173      -20.57790       -0.46497
C         12.08230      -23.56291        0.38048
C         13.15287      -24.29450        0.89002
C         13.23412      -24.31274        2.32080
C         12.26120      -23.53519        2.90074
S         11.13213      -23.01499        1.73273
C         12.09649      -23.16381        4.33937
C         12.41381      -25.59270       -1.99572
C         12.15825      -26.42631       -3.06356
S         11.25410      -25.58201       -4.21681
C         12.59236      -27.75989       -3.32813
C         12.91497      -28.63295       -2.36079
C         13.88137      -29.73215       -2.69339
O         14.04343      -30.29010       -3.75662
C         14.69405      -29.88481       -1.46628
C         14.17688      -29.07737       -0.44038
C         14.93210      -28.85828        0.69825
C         16.17599      -29.50718        0.83263
C         16.61934      -30.42455       -0.15895
C         15.88262      -30.58044       -1.34345
C         17.91167      -31.18240       -0.01026
C         17.00462      -29.21290        2.05683
C         12.88325      -28.53009       -0.90222
C         11.80993      -28.21398       -0.13571
C         10.52952      -27.93440       -0.70319
N          9.48464      -27.71887       -1.15999
C         11.87686      -28.19566        1.28170
N         11.95985      -28.17336        2.44532
H         -0.83742       -3.15141       -2.27978
H         -3.17467       -3.06107       -2.54676
H         -3.41245       -1.37051       -3.03959
H         -4.18165       -2.01739       -1.55877
H         -3.65068        0.64801       -1.42769
H         -3.09496        1.31781        0.09770
H         -4.14130       -0.12007        0.10975
H         -1.05523        0.52373        1.11871
H          3.00025       -2.63179        2.36911
H          3.35857       -5.23578        3.07140
H          1.65849       -7.13567        3.26061
H          1.04119       -8.30203        5.53214
H          2.75074       -9.79642        7.46696
H          3.77158      -10.95959        6.61112
H          2.01500      -11.05619        6.45865
H          6.17288       -4.68300       -1.81444
H          7.10837       -4.71983       -4.25856
H          6.65791       -6.98103       -6.43474
H          7.39964       -8.38990       -5.64913
H          8.28361       -6.86772       -5.73786
H          7.11388       -9.41627       -1.37530
H          7.14900      -11.99100       -2.23447
H          8.41999      -16.03392       -4.79165
H          8.75375      -14.59035       -6.93648
H          9.44581      -12.04347       -7.57208
H          9.80782      -10.96329       -6.22061
H          8.12695      -11.21341       -6.72985
H          8.86588      -18.08848        2.26065
H          8.31195      -18.12367        4.74665
H          6.33692      -16.24521        6.23514
H          6.95907      -14.60783        5.99744
H          8.01976      -15.85363        6.66238
H          9.06005      -18.48256        0.49529
H          9.68860      -20.00946       -3.71306
H          9.34999      -24.49141       -5.83296
H          8.95388      -23.39290       -8.15881
H          9.94671      -21.04565       -9.42821
H         10.31473      -19.70728       -8.33465
H          8.63656      -20.22169       -8.56195
H         13.89708      -24.79213        0.28691
H         14.00349      -24.82480        2.88874
H         12.77548      -23.73947        4.97885
H         11.07518      -23.34650        4.68701
H         12.32798      -22.10249        4.49148
H         13.06280      -25.90304       -1.19618
H         12.79034      -28.02332       -4.36794
H         14.60746      -28.16374        1.46828
H         16.24081      -31.20049       -2.16099
H         18.04843      -31.52183        1.02133
H         18.75582      -30.55074       -0.30134
H         17.91238      -32.08020       -0.63788
H         16.69870      -28.26927        2.52257
H         18.06130      -29.10047        1.79292
H         16.89155      -30.01559        2.79034
