136

C         -3.31883        1.83366        9.63435
C         -1.98370        2.05313        9.72544
C         -1.26260        1.97373       10.95719
N         -0.67239        1.91461       11.95069
C         -1.17453        2.31121        8.57884
N         -0.52352        2.52599        7.64275
C         -4.22399        1.41019       10.75037
C         -5.39474        0.89693       10.18694
C         -6.47292        0.42317       10.92379
C         -6.37770        0.46531       12.33084
C         -5.20900        0.97676       12.91212
C         -4.11989        1.46409       12.13885
S         -5.30561        0.92536       14.63695
C         -6.87160        0.25211       14.61049
C         -7.32861        0.06485       13.32825
C         -5.35332        0.97243        8.71997
O         -6.13896        0.43081        7.97212
C         -4.13781        1.78789        8.39023
C         -3.99059        2.46928        7.23958
C         -4.94338        2.48588        6.17684
C         -5.01383        1.69856        5.02665
C         -6.04306        2.15562        4.18429
C         -6.74100        3.23879        4.67398
S         -6.17646        3.72024        6.18008
C         -7.79947        3.74048        3.84533
C         -8.03891        3.05206        2.67561
Si        -6.78795        1.66275        2.54925
C         -5.75819        1.87432        0.97774
C         -4.36056        2.01525        1.03953
C         -3.61065        2.24370       -0.11873
C         -4.23899        2.33202       -1.35833
C         -5.61971        2.18308       -1.44543
C         -6.37416        1.95324       -0.29020
C         -7.44354       -0.09020        2.48149
C         -6.74592       -1.11806        1.81783
C         -7.27177       -2.41030        1.73327
C         -8.49503       -2.70795        2.32528
C         -9.18527       -1.71910        3.02002
C         -8.66366       -0.42391        3.10387
C         -9.05370        3.60333        1.87492
C         -9.56152        4.76170        2.46299
S         -8.79408        5.08401        3.99371
C        -10.58228        5.65655        1.95088
C        -10.69406        7.03366        2.16552
C        -11.81694        7.59292        1.50030
C        -12.54895        6.60100        0.90239
S        -11.89499        5.07413        0.97785
C        -13.73069        7.17058        0.40119
C        -13.76393        8.52500        0.67845
C        -12.51075        8.90473        1.32914
C        -11.97560       10.11637        1.63207
C        -10.49021       10.02068        1.94007
N         -9.25795        9.94131        2.19559
C        -12.66032       11.47314        1.60514
N        -13.22836       12.59869        1.58279
C        -14.96568        9.09663        0.20648
C        -15.77571        8.13129       -0.41000
S        -15.04224        6.56021       -0.39758
C        -17.09060        8.27720       -0.98828
C        -17.66752        7.51191       -2.00515
C        -18.98413        7.92770       -2.22851
C        -19.40712        8.93011       -1.38492
S        -18.19084        9.46107       -0.36246
C        -20.79856        9.24578       -1.44116
C        -21.55696        8.48789       -2.30750
Si       -20.40655        7.43092       -3.32607
C        -20.23217        8.33529       -5.03274
C        -19.19387        9.26779       -5.23921
C        -19.07634        9.95370       -6.45026
C        -19.98371        9.71485       -7.47760
C        -21.02025        8.80243       -7.28918
C        -21.15803        8.12820       -6.07123
C        -20.74104        5.65999       -3.76831
C        -21.90166        4.98844       -3.33045
C        -22.13200        3.64133       -3.64454
C        -21.22212        2.93725       -4.42545
C        -20.07795        3.57858       -4.88809
C        -19.83534        4.91943       -4.55791
C        -22.93348        8.64240       -2.12042
C        -23.19745        9.64561       -1.18366
S        -21.72148       10.31507       -0.54372
C        -24.42164       10.12147       -0.63050
C        -25.60550       10.08892       -1.25378
C        -26.03333        9.67807       -2.59169
C        -25.48415       10.06443       -3.76881
C        -25.98539        9.63270       -5.02722
N        -26.37780        9.24125       -6.04648
C        -24.40933       11.00005       -3.83430
N        -23.56087       11.78859       -3.90980
C        -27.35465        9.02109       -2.41403
C        -27.85126        9.38328       -1.15564
C        -26.83407       10.13805       -0.39784
O        -26.95803       10.60685        0.71319
C        -29.09578        8.99535       -0.67840
C        -29.89041        8.17791       -1.51529
C        -29.37502        7.77480       -2.75611
C        -28.09983        8.17644       -3.22297
S        -30.48650        6.75498       -3.59424
C        -31.64629        6.86997       -2.35286
C        -31.20638        7.64353       -1.30509
H         -7.36374        0.05199       10.42480
H         -3.25897        1.87180       12.65780
H         -7.38802        0.02610       15.53402
H         -8.30605       -0.34599       13.10362
H         -3.15782        3.14856        7.09153
H         -4.34352        0.87024        4.82871
H         -3.83421        1.97055        1.99140
H         -2.53298        2.36933       -0.04929
H         -3.65343        2.52508       -2.25368
H         -6.11197        2.25943       -2.41231
H         -7.45364        1.85248       -0.39865
H         -5.78638       -0.92838        1.33787
H         -6.72796       -3.18062        1.19237
H         -8.91006       -3.70890        2.24384
H        -10.13729       -1.95255        3.49063
H         -9.23318        0.32082        3.66059
H         -9.37683        3.22636        0.91150
H         -9.97963        7.56451        2.78188
H        -15.24926       10.13875        0.29341
H        -17.16096        6.70601       -2.52420
H        -18.46875        9.49276       -4.45865
H        -18.27786       10.67910       -6.58676
H        -19.88649       10.24330       -8.42271
H        -21.72699        8.61757       -8.09446
H        -21.99698        7.44549       -5.95182
H        -22.65619        5.49558       -2.73184
H        -23.02657        3.14189       -3.27848
H        -21.40702        1.89533       -4.67729
H        -19.37094        3.03500       -5.51111
H        -18.92397        5.37738       -4.94366
H        -23.69348        8.05060       -2.61259
H        -24.39160       10.42874        0.41676
H        -29.43444        9.30023        0.30790
H        -27.74824        7.81135       -4.18144
H        -32.59553        6.36036       -2.44693
H        -31.80250        7.82669       -0.41898
