139

C         -2.54828        0.54152       -5.32426
C         -2.33741       -0.78200       -5.12565
C         -1.82870       -1.63976       -6.14103
N         -1.41920       -2.34414       -6.96684
C         -2.54449       -1.41174       -3.86126
N         -2.71845       -1.93315       -2.83946
C         -2.21618        1.32662       -6.55323
C         -2.16784        2.67962       -6.20800
C         -1.90036        3.70665       -7.10556
C         -1.67991        3.35720       -8.45511
C         -1.73478        2.00401       -8.81756
C         -2.00626        0.97029       -7.88131
S         -1.44216        1.80418      -10.50834
C         -1.25607        3.47998      -10.75601
C         -1.41166        4.19262       -9.59125
C         -2.51199        2.87090       -4.79280
O         -2.40592        3.91496       -4.18641
C         -2.98100        1.52795       -4.30986
C         -3.80470        1.36466       -3.26133
C         -4.29721        2.44215       -2.39943
C         -5.51426        3.07047       -2.69787
C         -5.94518        4.09156       -1.86466
C         -5.17805        4.49003       -0.74785
C         -3.98062        3.86537       -0.44594
C         -3.54321        2.83502       -1.27739
C         -5.81992        5.60967       -0.10399
C         -6.98366        5.94892       -0.82317
C         -7.20903        4.95236       -1.96472
C         -7.33958        5.66116       -3.33939
C         -6.13435        6.49576       -3.76897
C         -8.48865        4.10482       -1.69981
C         -8.47134        3.24667       -0.43247
C         -7.73783        7.05537       -0.47123
C         -7.31884        7.82540        0.62351
C         -6.20141        7.43365        1.38195
C         -5.43818        6.32796        1.01416
C         -8.10440        9.00790        0.96989
C         -7.61495       10.10956        1.56417
C         -8.42953       11.24367        1.84918
C         -8.06719       12.42294        2.46376
C         -9.11261       13.42906        2.51141
C         -9.10152       14.78146        2.94874
C         -7.81173       15.39167        3.41100
C         -6.50739       15.19505        2.96763
C         -5.54079       16.02007        3.62175
C         -6.12498       16.89860        4.50288
S         -7.75956       16.48042        4.75858
C         -5.52792       18.06561        5.21773
Cl        -3.87137       15.93674        3.25374
C        -10.30136       15.53880        2.90084
C        -11.52529       14.96211        2.51583
C        -11.53117       13.62449        2.04143
C        -10.32003       12.89548        2.03140
S        -10.06980       11.31131        1.42886
C        -12.80670       12.99112        1.54002
C        -13.26166       11.67434        1.59425
C        -14.54150       11.46488        0.98965
C        -15.05726       12.62037        0.45476
S        -13.96549       13.91540        0.64438
C        -16.34296       12.85793       -0.26616
Cl       -15.28569        9.92231        0.94840
C        -12.60270       15.89402        2.73656
C        -12.21637       17.12931        3.18446
S        -10.53335       17.23477        3.21498
C        -13.07315       18.21347        3.57920
C        -12.80136       19.57845        3.52951
C        -13.87319       20.32120        4.05978
C        -14.87891       19.50350        4.52208
S        -14.63685       17.88551        4.27051
C        -15.85257       20.29385        5.15996
C        -15.47652       21.61481        5.07381
C        -14.21354       21.71162        4.34317
C        -13.52438       22.81680        4.00476
C        -12.32218       22.74789        3.25012
N        -11.34948       22.68732        2.62013
C        -13.98863       24.11896        4.35293
N        -14.37523       25.17739        4.62160
C        -16.36992       22.45410        5.77144
C        -17.33437       21.70501        6.44218
S        -17.22272       20.01024        6.05216
C        -18.39482       22.13735        7.26360
C        -18.37820       22.28374        8.60070
C        -17.44384       22.14248        9.73942
C        -16.09854       21.97226        9.77403
C        -15.39539       21.59993       10.96130
N        -14.80175       21.27818       11.89972
C        -15.20017       22.15845        8.69298
N        -14.35192       22.37089        7.92116
C        -18.28186       22.31118       10.98668
C        -19.61454       22.49836       10.62534
C        -19.75662       22.50094        9.17131
O        -20.80567       22.64256        8.57485
C        -20.65202       22.74401       11.52260
C        -20.32288       22.87341       12.88859
C        -18.98343       22.73422       13.26652
C        -17.95399       22.44855       12.33428
S        -18.77804       22.98313       14.96127
C        -20.44004       23.27013       15.19531
C        -21.15095       23.17066       14.02246
H         -1.88998        4.74230       -6.77668
H         -2.06205       -0.05183       -8.23853
H         -1.04407        3.86728      -11.74367
H         -1.33778        5.27301       -9.54691
H         -4.23071        0.40172       -2.99835
H         -6.09968        2.78337       -3.56482
H         -3.38027        4.18210        0.39959
H         -2.59533        2.35050       -1.05659
H         -8.22088        6.31672       -3.33562
H         -7.52292        4.91230       -4.12104
H         -5.93398        7.31000       -3.06675
H         -6.32493        6.94388       -4.74981
H         -5.23130        5.88520       -3.85968
H         -8.66646        3.43276       -2.54969
H         -9.36186        4.76879       -1.64533
H         -7.74568        2.43129       -0.51494
H         -9.45477        2.79178       -0.27550
H         -8.23474        3.83202        0.46060
H         -8.61732        7.32816       -1.04762
H         -5.90985        7.99283        2.26699
H         -4.56425        6.05445        1.59343
H         -9.14625        8.93694        0.66995
H         -6.56089       10.17545        1.82291
H         -7.06022       12.57168        2.83285
H         -6.23491       14.50794        2.17767
H         -4.48584       17.87897        5.49363
H         -6.07478       18.31499        6.13270
H         -5.54962       18.94791        4.56590
H        -12.70917       10.85801        2.04098
H        -16.78487       11.92623       -0.63194
H        -16.18145       13.50171       -1.13787
H        -17.07385       13.34690        0.38753
H        -13.64835       15.66657        2.59100
H        -11.86629       19.97438        3.15239
H        -16.28114       23.52759        5.89079
H        -19.33662       22.27230        6.72845
H        -21.67109       22.87737       11.17028
H        -16.94241       22.40308       12.71503
H        -20.81737       23.50110       16.18216
H        -22.22203       23.32437       13.97011
