124

C          1.86605        5.10854        1.46942
C          1.31408        6.29179        1.93921
F         -0.01250        6.46427        1.88029
C          2.11137        7.28505        2.49215
C          3.49604        7.11001        2.55586
C          4.08578        5.92075        2.10396
C          3.24461        4.89366        1.57634
C          3.78274        3.64959        1.22694
C          5.12170        3.41208        1.47655
C          5.96525        4.46407        1.86033
C          5.47463        5.71601        2.18506
C          7.37934        4.01144        1.83841
O          8.36273        4.68371        2.08319
C          7.32466        2.58159        1.36218
C          5.92378        2.17175        1.49999
C          5.45073        0.96666        1.89690
C          6.32992       -0.08111        2.27834
N          7.03633       -0.93610        2.63123
C          4.06155        0.67191        1.98844
N          2.92129        0.44114        1.99948
C          8.37406        2.05592        0.70227
C          8.32187        0.88491       -0.11966
S          9.73118       -0.10948       -0.33266
C          8.94589       -1.24118       -1.38448
C          7.62963       -0.88529       -1.53815
C          7.35502        0.32195       -0.89507
C          6.04040        0.72059       -1.24891
C          5.32159       -0.23382       -1.97931
C          3.93097       -0.13043       -2.38718
O          3.39038       -0.72490       -3.31061
O          3.29992        0.75920       -1.56276
C          1.92534        0.98766       -1.87200
S          6.23428       -1.65452       -2.42443
C          9.61477       -2.34221       -2.03816
C          9.31635       -2.89074       -3.26413
C         10.20153       -3.93917       -3.72255
C         10.25865       -4.65595       -4.95579
C          9.32231       -4.31164       -6.08726
C          8.70622       -5.12138       -7.04092
C          7.81416       -4.42367       -7.91434
C          7.71740       -3.08993       -7.59786
S          8.90041       -2.66669       -6.44244
C          6.79432       -2.05685       -8.15865
Cl         6.94822       -5.21069       -9.16491
C         11.17929       -5.72427       -5.09306
C         11.98682       -6.14881       -4.02081
C         11.97538       -5.38545       -2.81391
C         11.10291       -4.27282       -2.69824
S         10.93118       -3.16498       -1.36549
C         12.86668       -5.74835       -1.65827
C         13.57781       -4.93800       -0.77542
C         14.27905       -5.65467        0.24266
C         14.13701       -7.01527        0.11213
S         13.06267       -7.39186       -1.15764
C         14.73026       -8.10500        0.94405
Cl        15.17094       -4.86269        1.47196
C         12.67946       -7.36756       -4.39013
C         12.49762       -7.77483       -5.69016
S         11.53853       -6.65309       -6.51674
C         13.04882       -8.94144       -6.33854
C         12.51266       -9.65111       -7.41529
C         13.36165      -10.70948       -7.79618
C         14.48643      -10.76980       -7.00840
S         14.56050       -9.62518       -5.81135
C         15.31289      -11.81691       -7.46736
C         14.70312      -12.41656       -8.54431
C         13.41528      -11.76662       -8.79656
C         12.48946      -12.09978       -9.72698
C         11.28158      -11.36938       -9.85861
N         10.28145      -10.77948       -9.97324
C         12.68520      -13.18708      -10.61529
N         12.88336      -14.09022      -11.30962
C         15.50939      -13.42562       -9.10081
C         16.70509      -13.57671       -8.39205
S         16.80287      -12.43423       -7.07675
C         17.81511      -14.43734       -8.63950
C         17.70729      -15.66400       -9.16748
C         18.91986      -16.28388       -9.79719
O         20.08519      -16.03487       -9.57916
C         18.38722      -17.20399      -10.82431
C         19.11997      -17.92023      -11.75349
C         18.41751      -18.67308      -12.70389
C         16.99016      -18.63078      -12.73114
C         16.30189      -19.35926      -13.70879
C         17.00483      -20.14064      -14.61789
C         18.39096      -20.21075      -14.58452
C         19.09803      -19.47151      -13.63534
F         16.33134      -20.84616      -15.53550
C         16.28140      -17.88632      -11.77186
C         16.98382      -17.22113      -10.78094
C         16.56255      -16.48945       -9.56255
C         15.48543      -16.80331       -8.80303
C         15.36566      -16.37733       -7.44541
N         15.26756      -16.08096       -6.33007
C         14.45873      -17.68159       -9.25013
N         13.61683      -18.38351       -9.63158
H          1.20167        4.34965        1.06458
H          1.64812        8.18755        2.87805
H          4.10527        7.89752        2.99482
H          3.13311        2.87787        0.82229
H          6.15023        6.49406        2.53113
H          9.32233        2.59613        0.72335
H          5.58434        1.66398       -0.98506
H          1.57023        1.80097       -1.23204
H          1.33087        0.09394       -1.66183
H          1.81400        1.29907       -2.91451
H          8.48857       -2.52368       -3.84872
H          8.85293       -6.19078       -7.11895
H          6.95975       -1.92959       -9.23294
H          6.92145       -1.08050       -7.67904
H          5.74975       -2.35642       -8.00850
H         13.58858       -3.85647       -0.82094
H         15.82490       -8.05083        0.93824
H         14.44913       -9.10072        0.58470
H         14.38845       -8.01678        1.98040
H         13.29028       -7.95228       -3.71860
H         11.56839       -9.38540       -7.87693
H         15.27269      -14.00266       -9.98423
H         18.80945      -14.01201       -8.49039
H         20.20591      -17.89244      -11.72945
H         15.21663      -19.34390      -13.76780
H         18.91266      -20.84083      -15.29791
H         20.18441      -19.53489      -13.62238
H         15.19582      -17.85667      -11.81612
