119

C         -2.97338       -4.04858        2.11019
C         -2.51781       -2.96683        2.81021
C         -1.17612       -2.52406        2.47840
C         -0.34494       -1.48245        3.01118
C         -0.82908       -0.65485        4.20536
C         -2.01904       -0.65750        4.93154
C         -2.08195        0.24993        6.03430
C         -0.92671        0.96348        6.17003
S          0.14615        0.56962        4.94696
C         -0.51993        1.95730        7.19284
Cl        -3.45124        0.35635        7.04904
C          0.93765       -1.25875        2.40710
C          1.40000       -1.99034        1.29610
C          0.58262       -3.05307        0.79934
C         -0.68046       -3.30706        1.40998
S         -1.83767       -4.54572        0.98198
C          1.04419       -3.89976       -0.36768
C          0.82440       -5.24216       -0.67921
C          1.43180       -5.67758       -1.90086
C          2.13409       -4.67174       -2.51714
S          1.94549       -3.20713       -1.67404
C          2.92402       -4.69154       -3.78412
Cl         1.26405       -7.27851       -2.48604
C          2.69808       -1.46705        0.86395
C          3.19351       -0.42294        1.60047
S          2.17214       -0.13451        2.87753
C          4.42025        0.31126        1.42771
C          5.58532       -0.16052        0.82934
C          6.59568        0.82021        0.84580
C          6.16680        1.98334        1.44184
S          4.60096        1.95726        1.97725
C          7.22242        2.91378        1.43251
C          8.31795        2.34264        0.83400
C          7.98501        0.98027        0.41930
C          8.76332        0.07504       -0.21004
C          8.28721       -1.22025       -0.54352
N          7.89012       -2.27674       -0.81358
C         10.10469        0.38188       -0.56501
N         11.19963        0.63681       -0.85020
C          9.41173        3.22947        0.80042
C          9.09534        4.46830        1.38118
S          7.43966        4.46961        1.95895
C          9.90245        5.62267        1.54146
C          9.46680        6.90091        1.57360
C         10.50502        7.91193        1.74185
C         11.76911        7.44613        1.84414
Si        11.77158        5.57270        1.74096
C         12.93091        8.24382        2.01662
C         14.25008        8.01061        1.60128
C         15.11393        9.06933        1.96260
C         14.43335       10.05428        2.63703
S         12.82163        9.76866        2.87256
C         15.32548       11.09255        2.96022
C         16.57958       10.77211        2.49377
C         16.52318        9.46243        1.82417
C         17.52646        8.77175        1.23972
C         17.30758        7.49486        0.64757
N         17.12430        6.46333        0.16856
C         18.84822        9.29264        1.20551
N         19.92712        9.72184        1.17220
C         17.51154       11.79180        2.79817
C         16.90821       12.84461        3.49897
S         15.20887       12.55102        3.73655
C         17.53589       14.05609        3.98839
C         18.63187       14.70038        3.46220
C         19.06957       15.89735        4.16873
C         20.06457       16.90217        3.89279
C         20.71350       16.94843        2.51562
C         20.54340       16.14810        1.38704
C         21.28711       16.53367        0.23297
C         22.03629       17.65258        0.46317
S         21.87508       18.15246        2.06500
C         22.89011       18.43072       -0.47104
Cl        21.17183       15.68366       -1.24545
C         20.38753       17.84542        4.92983
C         19.81981       17.75727        6.21676
C         18.74766       16.84894        6.41911
C         18.36111       15.97198        5.38166
S         16.98827       14.90912        5.34164
C         18.05849       16.79610        7.74818
C         17.49558       15.72863        8.44126
C         17.02361       16.07060        9.74405
C         17.32349       17.37161       10.06907
S         17.76489       18.23714        8.66625
C         17.24493       18.07032       11.38323
Cl        16.26640       14.93139       10.77062
C         20.50758       18.64309        7.14268
C         21.35704       19.53034        6.54836
S         21.43179       19.25181        4.90092
H         -3.93513       -4.53376        2.21837
H         -3.19080       -2.54299        3.52859
H         -2.86511       -1.28356        4.74970
H         -1.24530        2.77257        7.24558
H          0.46088        2.39750        6.97406
H         -0.45009        1.46785        8.16828
H          0.24009       -5.92231       -0.07433
H          3.38643       -5.66837       -3.95899
H          3.73266       -3.95147       -3.76805
H          2.27282       -4.46236       -4.63379
H          3.26233       -1.82052        0.01794
H          5.66644       -1.16522        0.43639
H         10.38413        3.02015        0.37558
H          8.43277        7.21066        1.47567
H         10.22216        8.95823        1.76905
H         12.23654        4.88812        2.97548
H         12.48634        5.02323        0.56036
H         14.53605        7.12283        1.04854
H         18.56707       11.77838        2.55244
H         19.09319       14.28378        2.58602
H         19.88890       15.30545        1.30853
H         23.51463       17.76467       -1.07269
H         23.55524       19.12243        0.05758
H         22.25573       19.01995       -1.14106
H         17.44127       14.71742        8.06086
H         16.30918       18.62691       11.47679
H         18.08133       18.76919       11.50664
H         17.31057       17.35818       12.21324
H         20.34949       18.67836        8.21067
H         21.92325       20.32814        7.00908
