90

C          3.39210        3.77964        1.07381
C          2.82490        3.08246        2.08352
C          3.10849        3.35760        3.44889
N          3.33302        3.59076        4.56514
C          1.99009        1.95518        1.82204
N          1.33508        1.02484        1.59296
C          4.49916        4.74846        1.18218
C          5.29476        4.61073        0.03282
C          6.45130        5.34174       -0.16532
C          6.77973        6.31898        0.78664
C          5.91915        6.54776        1.90242
C          4.78660        5.73867        2.10518
C          6.20454        7.60262        2.78050
C          7.33338        8.40059        2.59281
C          8.20047        8.14520        1.53424
C          7.92491        7.11351        0.63500
C          4.61032        3.73580       -0.95217
O          5.01421        3.38986       -2.04098
C          3.25428        3.49054       -0.35259
C          2.18735        3.44673       -1.17066
C          0.86018        3.80310       -0.78801
S          0.44654        4.93860        0.44285
C         -1.25393        4.99972        0.08861
C         -1.43245        4.11828       -0.94096
C         -0.29145        3.47265       -1.41073
N         -0.43559        2.59598       -2.44907
C         -1.79503        2.68074       -2.68636
N         -2.36651        1.89806       -3.74011
O         -1.58283        1.18605       -4.38447
O         -3.58190        2.00061       -3.92075
C         -2.43734        3.57926       -1.80729
C         -2.17806        5.85917        0.84036
C         -1.95308        6.78618        1.87985
C         -0.63019        7.10343        2.38308
O          0.19425        7.75088        1.75573
O         -0.40629        6.70337        3.65838
C         -3.18493        7.34471        2.42312
C         -4.27384        6.86177        1.72845
S         -3.86356        5.76922        0.49779
C         -3.40206        8.29406        3.60287
S         -4.92003        8.28516        4.50991
C         -4.39957        9.43336        5.70495
C         -3.13017        9.76777        5.36778
C         -2.60096        9.21084        4.21065
N         -1.36705        9.67824        3.82797
C         -1.06737       10.54880        4.87160
N          0.16277       11.28578        4.84592
O          0.92236       11.06801        3.89592
O          0.35112       12.08475        5.76978
C         -2.08859       10.60906        5.83675
C         -5.24347        9.82799        6.78970
C         -6.09780       10.86873        6.73296
C         -6.82797       11.56262        7.82354
C         -7.47481       10.99499        8.87993
C         -8.25484       11.74611        9.80584
N         -8.88562       12.36055       10.55706
C         -7.46335        9.58064        9.07656
N         -7.43748        8.43143        9.23039
C         -6.87359       13.00684        7.43363
C         -6.49253       13.09353        6.08645
C         -6.22334       11.76003        5.53577
O         -6.18500       11.47014        4.35978
C         -6.29507       14.28934        5.41819
C         -6.49593       15.47726        6.12273
C         -6.95081       15.43409        7.47205
C         -7.12456       14.18720        8.12295
C         -7.19622       16.64884        8.13329
C         -6.96170       17.87365        7.50085
C         -6.46310       17.90513        6.20213
C         -6.23620       16.71389        5.51525
H          7.04423        5.19520       -1.06335
H          4.12879        5.93036        2.94917
H          5.54009        7.82524        3.61377
H          7.53401        9.22320        3.27501
H          9.08649        8.76055        1.39922
H          8.60934        6.94502       -0.19388
H          2.36853        3.30386       -2.23658
H          0.26866        2.02939       -2.91511
H         -3.49711        3.80209       -1.82168
H         -1.17262        6.24231        4.05135
H         -5.31770        7.11125        1.86806
H         -0.82452        9.49300        2.99069
H         -2.07004       11.21777        6.73272
H         -5.07246        9.30326        7.72496
H         -5.95490       14.28321        4.38629
H         -7.41440       14.18996        9.16939
H         -7.57624       16.65770        9.15399
H         -7.16088       18.80516        8.02554
H         -6.25557       18.85734        5.71934
H         -5.84450       16.76010        4.50075
