101

C         -0.90274       -0.33642       -2.15027
S          0.09593        0.91943       -2.71793
C          0.08417        1.70741       -1.19547
C         -0.69119        1.02624       -0.26598
C         -1.26160       -0.17524       -0.82795
C         -2.15840       -1.11666       -0.07802
C         -1.87190       -1.12450        1.41073
S         -2.06257        0.50919        2.08876
O         -3.40243        0.96985        1.77371
O         -1.61441        0.45961        3.46905
C         -0.87988        1.47819        1.15795
C          0.80798        2.91924       -1.03847
C          2.09920        2.88131       -0.67637
C          2.85884        4.07208       -0.50718
C          2.45778        5.35446       -0.11899
C          3.55039        6.24358       -0.06782
C          4.71846        5.62071       -0.43960
S          4.57669        4.00865       -0.79605
C          5.76798        6.55636       -0.39200
C          5.27289        7.76729        0.03274
C          3.83067        7.64263        0.25981
C          2.96287        8.58558        0.67476
C          1.57954        8.30127        0.84913
N          0.45242        8.05818        0.99172
C          3.38567        9.91127        0.96522
N          3.73675       10.99238        1.20502
C          6.29656        8.73558        0.11484
C          7.53697        8.20218       -0.25980
S          7.38213        6.54303       -0.75524
C          8.81445        8.89009       -0.32189
S          8.83595       10.54664       -0.73583
C         10.54450       10.64736       -0.70266
C         11.11571        9.43108       -0.33844
C         10.10279        8.41243       -0.09220
C         10.44842        7.00374        0.33359
C         11.75366        6.88963        1.09122
S         13.09106        7.52158        0.12256
O         14.27546        7.52879        0.96167
O         13.09969        6.82438       -1.15018
C         12.59898        9.21123       -0.14863
C         11.10473       11.92595       -0.99491
C         12.25079       12.07243       -1.67318
C         12.82017       13.34886       -1.93466
C         12.32084       14.63637       -1.72269
C         13.24537       15.61737       -2.12212
C         14.39597       15.05298       -2.61695
S         14.42192       13.39861       -2.62792
C         15.28838       16.07698       -2.97530
C         14.70742       17.29237       -2.69991
C         13.36280       17.07224       -2.16248
C         12.44580       17.98441       -1.79360
C         11.16947       17.60755       -1.28851
N         10.13383       17.28984       -0.86783
C         12.69697       19.37903       -1.90704
N         12.90538       20.51693       -1.99489
C         15.58788       18.35213       -2.99880
C         16.81749       17.87774       -3.47584
S         16.80710       16.14779       -3.62623
C         17.97147       18.66787       -3.86350
S         17.70624       20.21286       -4.53905
C         19.37228       20.55128       -4.72787
C         20.14205       19.46050       -4.32982
C         19.33126       18.37708       -3.78911
C         19.92733       17.09392       -3.25306
C         21.35717       17.22516       -2.77256
S         22.39323       17.85435       -4.06374
O         23.70745       18.08538       -3.49168
O         22.24222       16.99748       -5.22499
C         21.64980       19.44150       -4.40405
C         19.80911       21.79697       -5.27940
C         19.12779       22.94370       -5.14501
H         -1.18859       -1.13536       -2.82171
H         -2.03480       -2.13374       -0.46875
H         -3.19937       -0.82571       -0.26532
H         -0.84939       -1.45163        1.62789
H         -2.56850       -1.78171        1.93960
H          0.07496        1.40006        1.68980
H         -1.22181        2.51755        1.19894
H          0.28269        3.84976       -1.23115
H          2.60191        1.92574       -0.53297
H          1.42880        5.59344        0.11913
H          6.17225        9.76667        0.42512
H         10.48289        6.37472       -0.56468
H          9.66567        6.60964        0.98988
H         11.98161        5.84318        1.31546
H         11.73160        7.45207        2.03005
H         13.17050        9.51576       -1.02651
H         12.94096        9.78822        0.71737
H         10.53779       12.79603       -0.67117
H         12.78741       11.21342       -2.05801
H         11.34209       14.82370       -1.29992
H         15.37842       19.40694       -2.86611
H         19.87287       16.33420       -4.04301
H         19.33783       16.73469       -2.40269
H         21.75751       16.25044       -2.47563
H         21.43906       17.90751       -1.92034
H         21.99980       19.73730       -5.39807
H         22.05410       20.14043       -3.66341
H         20.75124       21.81843       -5.82107
H         18.19096       23.02000       -4.60086
H         19.50199       23.86183       -5.58659
