97

C         -0.59932        6.78456        5.06037
C          0.50916        6.93556        4.29299
C          1.70043        7.55859        4.76724
N          2.67086        8.06393        5.14868
C          0.59667        6.42064        2.96832
N          0.66003        6.00190        1.88302
C         -0.73641        7.16315        6.50193
C         -1.83535        6.48114        7.03083
C         -2.27295        6.60452        8.34405
C         -1.56491        7.48438        9.19210
C         -0.46258        8.17727        8.67354
C         -0.03455        8.03649        7.32689
S          0.25469        9.18936        9.87563
C         -0.88503        8.72961       11.05616
C         -1.79790        7.82694       10.56593
C         -2.49813        5.67413        5.99727
O         -3.37480        4.86183        6.20221
C         -1.84357        6.05918        4.70216
C         -2.42766        5.90720        3.50187
C         -3.70706        5.31183        3.30272
C         -3.99399        3.99884        2.94093
C         -5.38033        3.85064        2.66350
C         -6.06017        5.01145        2.91626
S         -5.12266        6.32377        3.39853
C         -7.41093        4.97017        2.64668
C         -7.88379        3.83074        2.08630
S         -6.56346        2.73526        2.06773
C         -9.22939        4.08601        1.74484
C         -9.51883        5.41202        2.12857
N         -8.39267        5.89754        2.81782
C         -8.29674        7.02695        3.71112
C        -10.78553        6.17322        1.84790
C        -10.87891        7.57383        1.64345
C        -12.12070        8.25181        1.33217
N        -12.13131        9.60306        1.23142
C        -10.98962       10.28845        1.42924
C         -9.81246        9.64755        1.67910
N         -9.75088        8.30683        1.75629
C        -13.33669        7.55929        1.12656
C        -13.29606        6.14794        1.34265
C        -12.00930        5.44901        1.70807
N        -12.18786        4.12397        1.87284
S        -13.76484        3.77397        1.56932
N        -14.33082        5.28827        1.27684
C        -14.62105        8.22604        0.74971
C        -15.07414        9.50957        1.07293
C        -16.40382        9.71958        0.61304
C        -16.87101        8.62537       -0.05840
S        -15.75160        7.40365       -0.31152
C        -18.20091        8.67161       -0.41601
C        -18.86742        9.81936       -0.10907
S        -17.71151       10.85324        0.62534
C        -20.21300        9.62391       -0.49326
C        -20.28658        8.33517       -1.01916
N        -19.02322        7.74165       -0.98367
C        -18.64740        6.41060       -1.40054
C        -21.41812        7.57317       -1.42160
C        -21.87375        7.50427       -2.68083
C        -21.43864        8.11221       -3.93708
C        -21.23776        9.42917       -4.18700
C        -20.84314        9.92101       -5.45893
N        -20.50569       10.31874       -6.49746
C        -21.59782       10.44779       -3.25251
N        -21.96425       11.31494       -2.57885
C        -21.67043        7.08761       -4.99627
C        -22.56133        6.13657       -4.48502
C        -22.77826        6.36045       -3.04073
O        -23.48004        5.69814       -2.30555
C        -23.11521        5.11365       -5.24730
C        -22.74909        5.04280       -6.61322
C        -21.80396        5.95393       -7.10739
C        -21.23188        6.97186       -6.30703
S        -21.47109        5.67108       -8.77644
C        -22.60585        4.40502       -8.86622
C        -23.20001        4.15721       -7.65134
H         -3.14428        6.05803        8.69219
H          0.80884        8.62777        6.98855
H         -0.83555        9.14334       12.05456
H         -2.60583        7.42181       11.16432
H         -1.97743        6.30136        2.59645
H         -3.25436        3.21641        2.82998
H         -9.88659        3.39607        1.23323
H         -9.29177        7.34262        4.02876
H         -7.76533        7.83256        3.19826
H         -7.75301        6.73202        4.61186
H        -11.05524       11.36868        1.38170
H         -8.88309       10.17961        1.84422
H        -14.51607       10.23613        1.64960
H        -21.02961       10.32042       -0.35910
H        -19.50334        5.87763       -1.81710
H        -18.28045        5.85581       -0.53331
H        -17.88338        6.49522       -2.17724
H        -21.85333        6.92167       -0.66131
H        -23.81733        4.40904       -4.81107
H        -20.49864        7.63880       -6.74643
H        -22.77934        3.89747       -9.80560
H        -23.94344        3.38200       -7.50979
