118

C         -6.74767        0.11799        3.89936
C         -7.80970       -0.72470        3.87416
C         -8.17214       -1.54824        4.97435
N         -8.47525       -2.22833        5.86801
C         -8.69230       -0.82369        2.75570
N         -9.39961       -0.90689        1.84376
C         -5.84426        0.37587        5.06472
C         -5.11047        1.53638        4.81098
C         -4.15977        2.07063        5.67330
C         -3.91702        1.38697        6.88270
C         -4.64127        0.21763        7.15007
C         -5.60579       -0.30915        6.25090
S         -4.19092       -0.45637        8.67450
C         -3.04763        0.77212        8.96848
C         -2.99551        1.68419        7.94182
C         -5.42769        2.07702        3.48728
O         -4.99837        3.12320        3.04802
C         -6.33851        1.06900        2.83939
C         -6.55026        1.02328        1.51355
C         -5.99641        1.97297        0.61767
S         -6.93497        3.32937        0.21444
C         -5.72157        3.98553       -0.81841
C         -4.60996        3.15929       -0.84639
C         -4.78051        1.99293       -0.03761
S         -3.57250        0.71034        0.12665
C         -2.14811        1.51828       -0.44723
O         -1.09503        1.67252        0.13691
C         -2.45165        1.91361       -1.87480
O         -2.19327        1.28385       -2.87988
S         -3.13062        3.50622       -1.76002
C         -5.98770        5.19196       -1.52167
C         -6.78386        6.13718       -0.99468
C         -7.16857        7.37676       -1.66066
C         -6.75992        7.65734       -2.96942
C         -7.07399        8.88260       -3.50965
C         -7.84451        9.80811       -2.78240
C         -8.30865        9.52276       -1.51126
C         -7.96063        8.30018       -0.94612
C         -7.96264       11.01501       -3.55210
C         -7.23754       10.88205       -4.75347
C         -6.67733        9.45969       -4.86844
C         -5.13110        9.47463       -5.08497
C         -4.27468       10.13788       -3.99720
C         -7.39886        8.68820       -6.02486
C         -8.91740        8.51148       -5.87098
C         -7.08564       11.95699       -5.61747
C         -7.66377       13.18291       -5.26176
C         -8.47393       13.26449       -4.10643
C         -8.61563       12.18672       -3.23879
C         -7.41361       14.36623       -6.09968
C         -7.39655       15.60741       -5.59095
C         -7.19533       16.80652       -6.37526
C         -7.67107       18.01701       -6.04315
C         -7.54821       19.19885       -6.86156
C         -8.31821       20.21710       -6.44951
C         -9.11303       19.90899       -5.27330
S         -8.63763       18.34470       -4.62456
C        -10.13918       20.62968       -4.78557
C        -10.66742       21.86171       -5.33821
C        -11.87297       22.19393       -4.85542
C        -12.37886       21.24551       -3.89100
S        -11.13956       20.10760       -3.43458
C        -13.64537       21.21607       -3.45402
C        -14.19990       20.24820       -2.52638
C        -14.27663       18.91448       -2.67239
C        -13.87261       17.97281       -3.72782
C        -14.06819       18.09464       -5.06391
C        -13.70638       17.07700       -5.99711
N        -13.41277       16.25558       -6.75927
C        -14.78707       19.18800       -5.63398
N        -15.41196       20.02463       -6.12860
C        -13.52361       16.69620       -3.03919
C        -14.05236       16.74621       -1.74658
C        -14.57886       18.09258       -1.45548
O        -15.11130       18.44850       -0.42524
C        -14.06803       15.66124       -0.87805
C        -13.52795       14.44013       -1.34465
C        -12.92295       14.41165       -2.61090
C        -12.87437       15.54299       -3.46099
S        -12.30857       12.83952       -2.97306
C        -12.90558       12.20305       -1.53037
C        -13.50278       13.13997       -0.72969
Br       -12.77216       10.38944       -1.08158
H         -3.61200        2.97110        5.40823
H         -6.10491       -1.23327        6.51657
H         -2.46392        0.76808        9.87908
H         -2.32378        2.53470        7.94229
H         -7.12833        0.24198        1.03580
H         -5.52702        5.30897       -2.49746
H         -7.19147        6.02369        0.00747
H         -6.19037        6.95043       -3.55754
H         -8.90013       10.23811       -0.95147
H         -8.30072        8.07943        0.06433
H         -4.90476        9.98510       -6.02990
H         -4.76175        8.44699       -5.19774
H         -4.49464       11.20372       -3.88264
H         -3.21472       10.06157       -4.26998
H         -4.39008        9.64892       -3.02496
H         -6.96996        7.68300       -6.14237
H         -7.22041        9.21050       -6.97364
H         -9.15820        7.79903       -5.07461
H         -9.34878        8.11597       -6.79714
H         -9.42642        9.45503       -5.65418
H         -6.49581       11.85589       -6.52307
H         -8.98933       14.18654       -3.85061
H         -9.20383       12.27954       -2.33447
H         -7.24337       14.18894       -7.15695
H         -7.56235       15.75784       -4.52607
H         -6.65468       16.68214       -7.31027
H         -6.92578       19.23181       -7.74487
H         -8.37533       21.16092       -6.97209
H        -10.16248       22.43319       -6.10313
H        -12.44069       23.05390       -5.18334
H        -14.33478       21.98662       -3.79979
H        -14.50344       20.68611       -1.57293
H        -14.51897       15.74496        0.10679
H        -12.37957       15.45720       -4.42226
H        -13.93832       12.91737        0.23687
