105

C         -2.49552       -1.23180       -1.65764
C         -2.79258       -2.00606       -2.73217
C         -2.04316       -3.16152       -3.09323
N         -1.43858       -4.10274       -3.40472
C         -3.88649       -1.75053       -3.60985
N         -4.77417       -1.54783       -4.32884
C         -1.36419       -1.45927       -0.68761
C         -1.42057       -0.47316        0.29838
C         -0.54256       -0.37845        1.37448
C          0.48510       -1.33667        1.47412
C          0.57248       -2.32845        0.48639
C         -0.34305       -2.40566       -0.60098
S          1.90869       -3.38491        0.79577
C          2.33674       -2.54430        2.19675
C          1.51657       -1.48198        2.46315
Br         3.79082       -3.01445        3.28070
C         -2.52273        0.45995        0.05705
O         -2.78287        1.41611        0.75618
C         -3.21655       -0.00892       -1.18818
C         -4.27482        0.65299       -1.68995
C         -4.89410        1.88543       -1.18299
C         -4.52408        3.12835       -1.64719
N         -5.17900        4.27032       -1.34964
C         -6.21239        4.19062       -0.48779
N         -6.62159        3.03247        0.06336
C         -5.96155        1.90722       -0.30814
C         -6.97023        5.42591       -0.22940
C         -8.36842        5.49195       -0.03039
C         -9.08719        6.74059        0.12498
N        -10.42435        6.70965        0.34229
C        -11.07578        5.52210        0.40907
C        -10.39936        4.34418        0.24778
N         -9.06476        4.33377        0.01201
C        -11.02962        3.06132        0.31776
N        -11.55970        2.03019        0.37972
C        -12.48919        5.58915        0.62368
N        -13.64220        5.62284        0.78269
C         -8.45952        8.01023        0.06460
C         -7.03728        7.97469       -0.09435
C         -6.28838        6.67460       -0.21350
N         -4.95741        6.86457       -0.27779
S         -4.66678        8.48167       -0.27580
N         -6.21250        9.03642       -0.17078
C         -9.18037        9.31702        0.19424
C        -10.46098        9.54016       -0.37356
C        -11.10603       10.76711       -0.20093
C        -10.49180       11.79129        0.53767
C         -9.23121       11.62687        1.06977
C         -8.59592       10.39551        0.90672
C        -11.34949       12.94418        0.57770
C        -12.50103       12.70179       -0.19574
C        -12.47637       11.25947       -0.73836
C        -12.42663       11.21777       -2.29557
C        -13.60510       11.80773       -3.06704
C        -13.64815       10.41275       -0.17182
C        -13.66602       10.23019        1.34880
C        -13.45330       13.70228       -0.35625
C        -13.24058       14.95252        0.24430
C        -12.10643       15.14986        1.05918
C        -11.16536       14.14163        1.24324
C        -14.16906       16.05501       -0.05183
C        -14.42232       17.03168        0.82948
C        -15.29126       18.15979        0.57724
C        -15.54098       19.14827        1.45074
C        -16.41346       20.26287        1.17904
C        -16.47818       21.15053        2.18064
C        -15.64921       20.81528        3.32762
S        -14.85627       19.26992        3.05626
C        -15.47558       21.56759        4.43159
C        -16.08465       22.86227        4.67927
C        -15.70307       23.43583        5.82821
C        -14.77143       22.63686        6.58037
S        -14.42929       21.12653        5.78694
C        -14.21744       22.98948        7.74282
H         -0.65161        0.41405        2.11029
H         -0.20046       -3.20385       -1.32113
H          1.63329       -0.82581        3.31788
H         -4.78097        0.33274       -2.59316
H         -3.68229        3.25726       -2.32147
H         -6.36055        0.99107        0.11878
H        -10.96300        8.76496       -0.94481
H         -8.73042       12.43257        1.59572
H         -7.60988       10.30207        1.35646
H        -12.32647       10.17258       -2.61839
H        -11.51983       11.72822       -2.64696
H        -14.54631       11.30327       -2.83278
H        -13.42861       11.69848       -4.14326
H        -13.72117       12.87911       -2.89372
H        -13.62842        9.41155       -0.62156
H        -14.60514       10.86436       -0.46201
H        -12.81392        9.63523        1.69262
H        -14.57378        9.69573        1.64947
H        -13.65739       11.18705        1.87883
H        -14.34931       13.52976       -0.94259
H        -11.92894       16.10324        1.55094
H        -10.30649       14.30870        1.88360
H        -14.62968       16.04816       -1.03608
H        -13.95383       16.99126        1.80919
H        -15.76039       18.19210       -0.40413
H        -16.95745       20.36199        0.24996
H        -17.08767       22.04033        2.13107
H        -16.77548       23.33149        3.99465
H        -16.04834       24.40289        6.16478
H        -14.44292       23.94034        8.21270
H        -13.51761       22.33736        8.25630
