73

C         -4.25891       -4.48500        5.76432
S         -3.86411       -3.47758        4.44579
C         -4.94172       -4.29401        3.34356
C         -5.57735       -5.33418        4.01557
C         -5.16903       -5.43841        5.40026
C         -5.63345       -6.39118        6.30546
C         -6.56349       -7.28935        5.72761
C         -7.09115       -8.32294        6.57829
N         -7.51354       -9.15134        7.27509
C         -6.98896       -7.19865        4.35501
C         -7.92762       -8.15345        3.83005
N         -8.67531       -8.90913        3.36175
C         -6.52339       -6.20380        3.45105
C         -5.00291       -3.80249        1.94457
C         -5.24575       -4.65490        0.85591
C         -5.33879       -4.16259       -0.45695
C         -5.13274       -2.79894       -0.62803
N         -4.86351       -1.93715        0.37473
C         -4.81080       -2.45597        1.62336
C         -5.66954       -5.08569       -1.55791
C         -5.78512       -4.73156       -2.84818
C         -6.15649       -5.65704       -3.86075
S         -5.58144       -5.43319       -5.49351
C         -6.37756       -6.84851       -6.08455
C         -7.07441       -7.44388       -5.07454
C         -6.95926       -6.76350       -3.85473
C         -7.74568       -7.45217       -2.90859
C         -8.30459       -8.55299       -3.45733
C         -7.91671       -8.60192       -4.92405
O         -8.23342       -9.42683       -5.75979
C         -9.16393       -9.50078       -2.80743
C         -9.06181       -9.79779       -1.50191
C         -9.92717      -10.76064       -0.81936
C        -10.25075      -10.57530        0.52765
C        -11.06872      -11.49901        1.18728
C        -11.54099      -12.57645        0.44391
N        -11.22824      -12.80912       -0.84870
C        -10.42321      -11.90279       -1.44371
C        -11.44713      -11.27094        2.58385
C        -11.71636      -12.24465        3.47076
C        -12.07086      -11.95791        4.83080
S        -12.91565      -10.48245        5.21496
C        -12.94776      -10.80348        6.88580
C        -12.36893      -12.00947        7.17085
C        -11.89335      -12.69786        5.99395
C        -11.29171      -13.96507        6.04994
C        -11.17503      -14.46932        7.37831
C        -10.53316      -15.75306        7.51901
N        -10.00881      -16.78277        7.60544
C        -11.64893      -13.76183        8.54391
C        -11.49525      -14.33991        9.85532
N        -11.38499      -14.77942       10.91909
C        -12.28052      -12.49343        8.47464
H         -3.79165       -4.32137        6.72681
H         -5.31714       -6.45942        7.34401
H         -6.89270       -6.15674        2.43490
H         -5.34897       -5.72370        1.01635
H         -5.17642       -2.32340       -1.60248
H         -4.59862       -1.70610        2.38091
H         -5.82673       -6.11943       -1.25977
H         -5.59046       -3.71703       -3.17782
H         -6.29200       -7.14527       -7.12114
H         -7.88423       -7.13819       -1.88427
H         -9.91110       -9.97136       -3.44371
H         -8.31693       -9.31292       -0.87279
H         -9.86851       -9.70898        1.06430
H        -12.21503      -13.30934        0.87534
H        -10.18128      -12.13458       -2.47615
H        -11.47565      -10.21837        2.86872
H        -11.64447      -13.28804        3.17831
H        -13.40285      -10.08449        7.55133
H        -10.93711      -14.52584        5.19202
H        -12.64499      -11.96381        9.34861
