84

C         -6.50963       -1.47734       -2.86585
C         -6.81774       -2.50303       -1.98332
C         -5.81537       -3.37389       -1.57905
C         -4.49516       -3.24241       -2.05977
C         -4.18653       -2.19427       -2.96019
N         -2.93855       -2.00843       -3.46703
C         -2.74360       -0.97639       -4.31360
C         -3.76351       -0.12899       -4.67422
N         -5.01643       -0.28100       -4.20314
C         -5.22486       -1.30616       -3.35428
C         -3.45439       -4.20308       -1.60984
S         -3.86467       -5.82860       -1.25075
C         -2.25109       -6.26796       -0.84828
C         -1.38206       -5.20423       -1.05007
C         -2.09427       -4.02105       -1.44436
C          0.06957       -5.26254       -0.91855
O          0.80218       -4.28814       -1.05112
C         -2.04037       -7.61398       -0.43853
C         -1.12534       -7.94284        0.48178
C         -0.87315       -9.29516        0.86498
N         -0.94884       -9.72452        2.18116
C         -1.39238       -8.94681        3.32203
C         -0.32074       -8.81251        4.39278
C         -0.69517      -11.10317        2.28270
O         -0.73324      -11.79412        3.27457
C         -0.39937      -11.50229        0.88349
C         -0.53495      -10.31955        0.07764
C         -0.26828      -10.67823       -1.32192
O         -0.30435       -9.93805       -2.28180
N          0.01724      -12.05986       -1.23916
C          0.30162      -12.83765       -2.43486
C          1.58381      -12.40116       -3.12867
C         -0.08049      -12.52774        0.08309
C          0.12411      -13.90784        0.44889
C         -0.02786      -14.40456        1.68371
C          0.16647      -15.77720        1.97875
S         -0.71582      -16.46954        3.27255
C         -0.00558      -18.01268        3.04637
C          0.90389      -18.00375        2.00030
C          0.99400      -16.70894        1.39689
C          1.67255      -19.15738        1.55707
O          2.47289      -19.10558        0.62829
C         -0.44145      -19.06665        3.88955
C          0.20075      -19.33248        5.03775
C         -0.21756      -20.39118        5.98479
C         -0.79082      -21.57506        5.48860
C         -1.17483      -22.58913        6.35321
C         -0.97624      -22.43025        7.71968
C         -0.40103      -21.28123        8.24191
N         -0.24532      -21.20494        9.57743
C          0.30906      -20.07524       10.05830
C          0.70792      -19.04913        9.23166
N          0.56660      -19.11066        7.88917
C         -0.00013      -20.23213        7.37067
H         -7.29023       -0.78995       -3.18331
H         -7.83202       -2.62149       -1.61154
H         -6.08051       -4.16026       -0.87525
H         -1.73571       -0.85320       -4.69220
H         -3.60508        0.69900       -5.35458
H         -1.59158       -3.07857       -1.63751
H          0.51413       -6.24357       -0.68789
H         -2.67208       -8.38605       -0.87669
H         -0.53819       -7.19703        1.01000
H         -2.26670       -9.45385        3.74643
H         -1.71415       -7.95066        3.00525
H         -0.03070       -9.78744        4.79686
H         -0.69402       -8.20585        5.22354
H          0.57892       -8.33555        3.99167
H         -0.54351      -12.71602       -3.12189
H          0.37405      -13.90329       -2.21119
H          1.50943      -11.37335       -3.49587
H          1.78754      -13.04681       -3.98906
H          2.43809      -12.45474       -2.44655
H          0.39562      -14.59569       -0.34339
H         -0.33177      -13.78777        2.51496
H          1.65865      -16.48599        0.56959
H          1.49764      -20.10073        2.09483
H         -1.33659      -19.60193        3.58756
H          1.05436      -18.73191        5.35150
H         -0.94047      -21.72258        4.42155
H         -1.62449      -23.49962        5.96621
H         -1.27542      -23.22424        8.39982
H          0.42211      -20.01987       11.13550
H          1.15191      -18.14235        9.62600
