64

C          1.57444       -5.72601       -3.68500
C          0.66421       -6.47037       -4.38839
S          0.30053       -7.93680       -3.54061
C          1.35701       -7.54073       -2.26361
Cl         1.52631       -8.61697       -0.94170
C          1.96248       -6.33724       -2.46783
C          2.90057       -5.55089       -1.71864
O          3.45004       -5.84797       -0.67763
C          3.01970       -4.27344       -2.56083
C          2.26816       -4.46972       -3.85594
C          2.30073       -3.71121       -4.97493
C          1.55512       -4.05040       -6.14221
N          0.94099       -4.32591       -7.08618
C          3.10591       -2.54685       -5.10729
N          3.76447       -1.59451       -5.20372
C          3.61669       -3.15915       -2.09771
C          4.25737       -3.07954       -0.83300
C          3.74062       -2.65714        0.37470
C          4.69450       -2.73621        1.43193
C          5.91829       -3.22700        1.01459
S          5.91910       -3.47205       -0.68382
C          7.06184       -3.51359        1.83989
S          7.43433       -2.64633        3.29422
C          8.80950       -3.64251        3.70294
C          8.89183       -4.59439        2.74127
C          7.98163       -4.49766        1.70908
N          8.08323       -5.41459        0.69971
C          9.14886       -6.19505        1.12679
C          9.64231       -7.29252        0.36268
N         10.03965       -8.17592       -0.27427
C          9.64981       -5.74023        2.36698
C          9.59888       -3.38777        4.91125
C         10.22759       -4.43724        5.59276
C         10.91265       -4.21919        6.79430
C         11.04631       -2.89472        7.20328
N         10.50544       -1.83970        6.55329
C          9.78006       -2.11316        5.44194
C         11.56822       -5.30136        7.54629
C         11.23170       -6.59974        7.65811
C         12.34424       -7.52763        8.14410
O         13.34072       -7.24285        8.77868
C         11.95388       -8.78905        7.57492
C         12.51051      -10.03023        7.51705
S         11.54206      -11.11375        6.62327
C         10.33680       -9.90662        6.32342
C         10.69563       -8.72733        6.91842
C         10.11245       -7.42302        7.11416
C          8.79527       -7.12001        7.04301
C          7.85164       -8.01375        6.46035
N          7.10325       -8.74157        5.95436
C          8.24761       -5.93819        7.61710
N          7.77208       -5.00265        8.11046
Cl        13.98152      -10.57672        8.20192
H          0.17267       -6.28655       -5.33395
H          3.62245       -2.22871       -2.65128
H          2.71563       -2.33252        0.50997
H          4.46758       -2.48381        2.46127
H          7.52073       -5.46256       -0.14348
H         10.47321       -6.19453        2.90259
H         10.16700       -5.43766        5.18168
H         11.61622       -2.62434        8.08952
H          9.35306       -1.23167        4.97054
H         12.50932       -4.97897        8.00324
H          9.45959      -10.17307        5.74837
