82

C         14.08162       -7.19115       15.26060
C         15.03529       -7.93121       15.90586
S         16.58678       -7.66458       15.18265
C         15.94400       -6.58312       14.03039
Cl        16.97676       -5.88728       12.85427
C         14.59989       -6.42731       14.18344
C         13.58404       -5.68939       13.48276
O         13.72554       -4.84220       12.62470
C         12.30073       -6.22618       14.12085
C         12.65930       -6.98663       15.36393
C         11.85377       -7.30843       16.40568
C         12.35193       -7.99609       17.54796
N         12.76245       -8.56037       18.48012
C         10.48464       -6.94367       16.46261
N          9.36378       -6.64667       16.48881
C         11.10624       -6.18997       13.50210
C         10.90277       -5.61458       12.22260
S         11.12305       -6.57237       10.83613
C         10.65340       -5.31499        9.74209
C         10.31685       -4.16830       10.46158
C         10.46456       -4.35697       11.88135
C          9.85707       -2.91668        9.87146
O          9.82828       -1.85403       10.48577
C         10.64060       -5.54392        8.32368
C         11.00690       -6.71176        7.76982
C         10.92275       -6.92317        6.37490
S         12.27985       -6.66379        5.38888
C         11.49763       -7.27501        3.97000
C         10.17323       -7.60438        4.25637
C          9.86250       -7.40639        5.64466
C          9.19862       -8.12521        3.30417
O          9.40970       -8.30064        2.09937
C         12.21243       -7.33112        2.72737
C         13.54174       -7.52798        2.66919
C         14.35457       -7.54307        1.44528
C         15.70749       -7.17165        1.52085
C         16.52342       -7.22093        0.38629
C         15.92557       -7.63810       -0.79949
N         14.63091       -8.01998       -0.91572
C         13.87668       -7.95977        0.20682
C         17.91497       -6.78187        0.42179
N         19.02324       -7.58348        0.73330
C         19.03718       -8.96488        1.16910
C         18.59498       -9.97496        0.12462
C         20.21732       -6.83204        0.72767
O         21.34929       -7.18334        0.98938
C         19.75719       -5.48490        0.35370
C         18.33351       -5.53294        0.17578
C         17.89213       -4.17812       -0.19266
O         16.75019       -3.80842       -0.37352
N         19.11052       -3.43893       -0.24387
C         19.05720       -2.00079       -0.46103
C         20.19812       -1.34640       -1.22369
C         20.19618       -4.24085        0.14385
C         21.56643       -3.81326        0.23305
C         22.46841       -4.25451        1.12037
H         14.95667       -8.61834       16.73803
H         10.23848       -6.70212       13.90199
H         10.23732       -3.58638       12.61045
H          9.50183       -2.96150        8.82977
H         10.31623       -4.73531        7.67218
H         11.36735       -7.55607        8.34773
H          8.90372       -7.64008        6.09426
H          8.21388       -8.36868        3.73379
H         11.63074       -7.20395        1.81720
H         14.11938       -7.67886        3.57853
H         16.11860       -6.81842        2.46448
H         16.49014       -7.69083       -1.72672
H         12.84497       -8.27464        0.06941
H         18.43761       -9.04092        2.08124
H         20.06419       -9.22914        1.45672
H         17.81544       -9.59890       -0.53705
H         18.21895      -10.87563        0.62075
H         19.44023      -10.27576       -0.50390
H         18.93854       -1.52366        0.51777
H         18.13579       -1.78715       -1.01838
H         21.10631       -1.28451       -0.62057
H         19.94214       -0.31085       -1.47111
H         20.41721       -1.87724       -2.15540
H         21.92394       -3.11618       -0.51244
H         22.24198       -4.99931        1.87731
H         23.49341       -3.89856        1.08436
