94

C          2.20409      -13.38907        5.14945
S          1.57745      -11.84240        4.78309
C          1.06496      -12.31379        3.19021
C          1.42382      -13.63318        2.95886
C          2.06298      -14.24124        4.08756
C          2.50339      -15.55999        4.13810
C          2.28122      -16.27630        2.93051
C          2.70250      -17.69558        2.89202
C          3.74734      -18.19629        3.56609
C          1.61993      -15.67774        1.78186
C          1.38402      -16.48892        0.52361
C          1.16957      -14.32315        1.76295
C          0.41981      -11.38812        2.31560
C         -0.39158      -10.40228        2.74036
C         -1.07585       -9.53806        1.82730
S         -1.61068      -10.13415        0.29170
C         -2.29084       -8.63506       -0.19976
C         -2.15630       -7.70780        0.80201
C         -1.46406       -8.21407        1.96370
C         -1.18556       -7.44056        3.10083
C         -1.62688       -6.09041        3.00831
C         -1.38932       -5.20026        4.17028
C         -0.31965       -5.24881        4.97733
C         -2.33286       -5.58770        1.84354
C         -2.78250       -4.14300        1.77933
C         -2.63043       -6.38904        0.70284
C         -2.82801       -8.58270       -1.52129
C         -4.11457       -8.89481       -1.73739
C         -4.71161       -8.99369       -3.09407
C         -4.75171      -10.23160       -3.74481
C         -5.32280      -10.32064       -5.04038
N         -5.33490      -11.52855       -5.66390
C         -4.84670      -12.60901       -5.02164
C         -4.31646      -12.51210       -3.76508
N         -4.25592      -11.33133       -3.12211
C         -5.87638       -9.16683       -5.65647
C         -5.83797       -7.92866       -4.95990
C         -5.25100       -7.84741       -3.67327
N         -5.22105       -6.67874       -2.98237
C         -5.76326       -5.59062       -3.55283
C         -6.32308       -5.64944       -4.79880
N         -6.37317       -6.80296       -5.49632
C         -6.52365       -9.25096       -7.02741
C         -7.23899      -10.38084       -7.47432
C         -7.83085      -10.44147       -8.74695
C         -7.73247       -9.31081       -9.54355
N         -7.06606       -8.19624       -9.18666
C         -6.48116       -8.20386       -7.95828
C         -8.58535      -11.63719       -9.14387
C         -8.72969      -12.05359      -10.41376
C         -9.52252      -13.22968      -10.79504
C        -10.65972      -13.63893      -10.08880
C        -11.40215      -14.74986      -10.50687
C        -10.95818      -15.39485      -11.65943
N         -9.88061      -15.02401      -12.39012
C         -9.19467      -13.94993      -11.94258
C        -12.58131      -15.16797       -9.73589
C        -13.36308      -16.21452      -10.03561
H          2.64565      -13.57972        6.11790
H          2.96182      -15.99621        5.01476
H          2.11652      -18.36728        2.27138
H          4.38728      -17.58501        4.19400
H          3.99336      -19.25051        3.49772
H          2.33606      -16.83855        0.11175
H          0.88899      -15.89614       -0.25355
H          0.73441      -17.34366        0.73701
H          0.67612      -13.89117        0.90111
H          0.58483      -11.54321        1.25387
H         -0.56481      -10.23556        3.79847
H         -0.67626       -7.82473        3.97399
H         -2.14914       -4.44828        4.36991
H          0.48996       -5.95789        4.83898
H         -0.22531       -4.55570        5.80815
H         -1.92803       -3.47090        1.91117
H         -3.53808       -3.94134        2.54520
H         -3.23166       -3.90663        0.80793
H         -3.16121       -6.00991       -0.16091
H         -2.14717       -8.37528       -2.33790
H         -4.79276       -9.12645       -0.91527
H         -4.90501      -13.55262       -5.55201
H         -3.92515      -13.37244       -3.23587
H         -5.73430       -4.67657       -2.97286
H         -6.74980       -4.77755       -5.28011
H         -7.34173      -11.25041       -6.82984
H         -8.20907       -9.25511      -10.51840
H         -5.95638       -7.27563       -7.75178
H         -9.02711      -12.19367       -8.32176
H         -8.24363      -11.52971      -11.23287
H        -10.97792      -13.08187       -9.21076
H        -11.46969      -16.26420      -12.05929
H         -8.34074      -13.68302      -12.55940
H        -12.82396      -14.57491       -8.85542
H        -13.19242      -16.85628      -10.89257
H        -14.21661      -16.46284       -9.41486
