112

C          4.13402       -5.42172       10.28571
S          2.99788       -6.07011        9.19348
C          2.35022       -7.16536       10.37838
C          2.93506       -6.92938       11.60792
C          3.98777       -5.95152       11.53423
C          4.78830       -5.58121       12.60596
C          4.46216       -6.24877       13.81872
C          5.28756       -5.82115       14.96571
C          5.83267       -6.61909       15.89164
C          3.37155       -7.20505       13.91637
C          2.99837       -7.84863       15.23153
C          2.59519       -7.60632       12.78490
C          1.36585       -8.12812       10.02370
C          1.44130       -8.81551        8.87181
C          0.65218       -9.95366        8.53256
C          0.49762      -10.51311        7.19515
C          0.68543       -9.96510        5.89903
O          0.80835       -8.58731        5.70984
C         -0.22544       -7.83832        6.37318
C         -0.94741       -6.93737        5.39572
C          0.77394      -10.80184        4.76404
C          0.59748      -12.17992        4.86881
C          0.02618      -12.67435        6.11793
C          0.06308      -11.83584        7.26924
S         -0.37069      -12.20120        8.91708
C          0.00977      -10.68594        9.49694
O         -0.57809      -13.95714        6.16304
C         -1.68913      -14.11468        7.09553
C         -2.55614      -15.36851        7.01074
C          1.09995      -12.79209        3.60631
C          1.19802      -11.94949        2.48916
S          1.01903      -10.33088        3.11129
C          1.46471      -12.18545        1.00346
C          1.10242      -13.16651        0.02085
C          1.61520      -12.83337       -1.29090
C          2.54111      -11.82220       -1.25198
S          2.53005      -10.98515        0.24397
C          3.20045      -11.83920       -2.49387
C          2.66975      -12.84993       -3.23970
N          1.51219      -13.24981       -2.63927
C          0.25272      -13.58388       -3.28953
C          0.11040      -13.15540       -4.75139
C          3.33184      -13.14980       -4.53648
C          4.08943      -11.84228       -4.89280
S          4.45866      -10.95900       -3.27950
C          0.43065      -14.50298        0.24207
S          0.42823      -15.97596       -0.73892
C         -0.01039      -16.94806        0.65265
C          0.35268      -16.13115        1.71412
C         -0.23578      -14.89605        1.35847
C         -1.05728      -14.11000        2.12291
C         -1.24752      -14.74603        3.37187
N         -2.41821      -14.21217        4.01812
O         -3.40987      -14.94591        4.04223
O         -2.42946      -12.99666        4.29478
C         -0.46532      -15.89212        3.82622
N         -0.44437      -16.47658        5.13400
O          0.57220      -16.25535        5.83098
O         -1.27725      -17.36135        5.36575
C          0.41166      -16.63184        2.99524
C         -0.73103      -18.22278        0.72727
S         -1.87240      -18.44110        2.06171
C         -2.15103      -20.07970        1.74021
C         -1.61836      -20.41157        0.53229
C         -0.83021      -19.33927       -0.07825
C         -0.24212      -19.44895       -1.33856
C         -0.55153      -20.69688       -1.94009
N         -0.10984      -20.85193       -3.30264
O         -0.64876      -20.12263       -4.14415
O          0.80367      -21.65687       -3.51152
C         -1.31060      -21.73902       -1.32002
N         -1.59163      -22.95685       -2.04386
O         -0.69039      -23.79762       -2.09442
O         -2.73633      -23.07671       -2.49391
C         -1.87396      -21.65529       -0.03233
H          4.84308       -4.67562        9.94246
H          5.59365       -4.85949       12.52530
H          5.50733       -4.75509       15.00537
H          5.69894       -7.69411       15.89486
H          6.45150       -6.19605       16.67687
H          3.01171       -7.11856       16.04659
H          3.67685       -8.67758       15.45550
H          1.98023       -8.25372       15.20045
H          1.81329       -8.34835       12.86186
H          0.62149       -8.37505       10.77423
H          2.22399       -8.57932        8.15189
H          0.24791       -7.20872        7.13290
H         -0.97712       -8.46946        6.86210
H         -1.35014       -7.51523        4.55985
H         -0.26677       -6.18484        4.98857
H         -1.77133       -6.42461        5.90344
H         -0.13113      -10.47655       10.54715
H         -2.35289      -13.24624        7.02293
H         -1.27095      -14.24789        8.08760
H         -2.79937      -15.69344        6.01246
H         -3.50602      -15.21180        7.53025
H         -2.05836      -16.20975        7.50521
H          1.32172      -13.84525        3.53865
H         -0.53445      -13.07885       -2.71754
H          0.10575      -14.66195       -3.21815
H          0.54064      -12.16632       -4.94307
H         -0.94384      -13.12324       -5.04383
H          0.59480      -13.87936       -5.41534
H          2.67510      -13.45325       -5.35025
H          4.05851      -13.95947       -4.38798
H          3.43850      -11.19117       -5.48845
H          5.00564      -12.03699       -5.45697
H         -1.53499      -13.19159        1.80601
H          0.87366      -17.56515        3.28896
H         -2.76178      -20.67309        2.41404
H          0.32904      -18.67982       -1.83837
H         -2.46854      -22.44057        0.42296
