76

C         -2.56079       -1.84877       -4.53199
C         -1.50683       -1.30360       -5.22268
C         -0.65586       -0.36112       -4.59406
N          0.38113        0.13526       -5.32160
C          0.53587       -0.27333       -6.60106
C         -0.31222       -1.18296       -7.17850
N         -1.34261       -1.71076       -6.49521
C         -0.91515        0.02583       -3.24631
C         -2.01684       -0.56190       -2.56175
C         -2.83095       -1.50876       -3.22974
N         -3.88704       -2.10981       -2.65008
C         -4.15400       -1.77873       -1.37435
C         -3.38692       -0.86515       -0.69779
N         -2.33401       -0.24857       -1.27923
C         -0.04382        1.05221       -2.55466
C          0.56393        2.12308       -3.23836
C          1.37951        3.05513       -2.58442
C          1.55168        2.91793       -1.21683
N          0.99299        1.92603       -0.49643
C          0.22867        1.02820       -1.17931
C          2.03319        4.12611       -3.33268
C          1.42248        5.29268       -3.57967
C          2.11050        6.30499       -4.28151
S          3.05216        7.51187       -3.50828
C          3.53092        8.29497       -5.00733
C          2.92713        7.60064       -6.00151
C          2.15591        6.52373       -5.60633
N          1.53509        5.80270       -6.58645
C          1.93883        6.47826       -7.73174
C          1.52866        6.07859       -9.03606
N          1.18809        5.73667      -10.08903
C          2.78112        7.56716       -7.41607
C          4.41511        9.47002       -4.99549
C          4.89604       10.01368       -3.79864
C          5.72380       11.13508       -3.77997
C          6.05685       11.68495       -5.01350
N          5.62999       11.20466       -6.20348
C          4.82342       10.11491       -6.16029
C          6.23423       11.72505       -2.53700
C          6.09388       11.21475       -1.29935
C          6.68224       11.79927       -0.06037
C          5.97936       11.62088        1.15177
C          6.52968       12.16404        2.33384
N          5.92224       12.04939        3.53052
C          4.75289       11.37917        3.56079
C          4.20186       10.83481        2.42515
N          4.79724       10.94754        1.21790
C          7.73416       12.83725        2.27918
C          8.44631       12.98755        1.10623
C          7.93557       12.44959       -0.09163
N          8.66349       12.57022       -1.23304
C          9.83299       13.23295       -1.18335
C         10.30209       13.76325       -0.00903
N          9.62172       13.64718        1.15047
H         -3.20151       -2.57247       -5.03188
H          1.36548        0.16030       -7.14705
H         -0.19171       -1.51601       -8.20256
H         -5.00381       -2.27062       -0.91636
H         -3.58906       -0.59889        0.33315
H          0.42213        2.24412       -4.30875
H          2.16171        3.61271       -0.64612
H         -0.16630        0.25030       -0.53118
H          3.04804        3.92086       -3.66766
H          0.42059        5.50404       -3.21438
H          0.94372        4.98849       -6.47096
H          3.21836        8.23651       -8.14565
H          4.62047        9.55767       -2.85535
H          6.70295       12.55609       -5.08765
H          4.51374        9.77810       -7.14245
H          6.79424       12.64514       -2.68362
H          5.51909       10.30988       -1.12122
H          4.27418       11.29421        4.52911
H          3.26419       10.29116        2.45131
H          8.14347       13.25318        3.19746
H         10.37246       13.32117       -2.11773
H         11.24059       14.30354        0.03742
