64

C          8.23456       -5.21092        3.32617
S          7.73565       -6.20056        2.02218
C          6.19274       -5.41335        2.10590
N          6.14283       -4.49389        3.05483
N          7.32007       -4.37655        3.76322
C          5.15071       -5.80126        1.21553
C          3.95999       -5.18322        1.26708
C          2.85642       -5.56626        0.45147
S          1.56090       -4.45280        0.23728
C          0.62694       -5.56503       -0.65981
C         -0.68961       -5.15623       -1.10189
O         -1.46338       -5.85007       -1.76119
C          1.29625       -6.75918       -0.83858
C          2.58463       -6.74796       -0.21911
C          0.75467       -7.87929       -1.52953
N          0.95355       -8.10715       -2.89327
C          1.80764       -7.35146       -3.78073
C          3.19518       -7.96952       -3.87664
C          0.30935       -9.28765       -3.32079
O          0.30438       -9.81028       -4.41371
C         -0.32233       -9.78089       -2.08379
C          0.01061       -8.86720       -1.02568
C         -0.57634       -9.38341        0.21927
O         -0.48285       -8.90125        1.32923
N         -1.20197      -10.57968       -0.20324
C         -1.82693      -11.48421        0.74358
C         -3.28270      -11.15239        1.02130
C         -1.06821      -10.77155       -1.58264
C         -1.60713      -11.90242       -2.29348
C         -2.02049      -11.85079       -3.57135
C         -2.59338      -12.96863       -4.31242
N         -2.39069      -14.22488       -3.87323
C         -2.97376      -15.18949       -4.62480
C         -3.75455      -14.92222       -5.73122
N         -3.93285      -13.64372       -6.11811
N         -3.32881      -12.65140       -5.40251
C         -4.38614      -15.96915       -6.51636
S         -5.84321      -15.68619       -7.38435
C         -5.78203      -17.33138       -7.91487
N         -4.74325      -17.98491       -7.42578
N         -3.95125      -17.20961       -6.60686
C         -6.79471      -17.82551       -8.78384
C         -6.75891      -19.08186       -9.24757
H          9.22372       -5.26556        3.75820
H          5.34292       -6.60460        0.51257
H          3.80628       -4.36464        1.97105
H         -1.00022       -4.13604       -0.81479
H          3.25733       -7.59774       -0.22396
H          1.87012       -6.30870       -3.45231
H          1.34956       -7.35361       -4.77559
H          3.69281       -7.97712       -2.90187
H          3.81861       -7.40568       -4.57669
H          3.14194       -9.00618       -4.22699
H         -1.26910      -11.42635        1.68592
H         -1.73372      -12.51576        0.39236
H         -3.38269      -10.16255        1.47795
H         -3.70720      -11.88755        1.71388
H         -3.87814      -11.16544        0.10352
H         -1.70080      -12.83763       -1.74876
H         -1.97064      -10.93217       -4.14856
H         -2.79686      -16.20754       -4.29041
H         -7.60885      -17.16989       -9.07905
H         -5.96247      -19.77270       -8.98183
H         -7.53292      -19.44883       -9.91369
