86

C          1.70726        0.57406       -0.56358
N          0.48429        0.14439       -0.42144
C         -0.15463        1.22528        0.09673
C          0.76326        2.33125        0.23241
C          0.02380        3.47738        0.84737
O          0.39446        4.59201        1.12460
C         -1.33619        2.91244        1.04512
C         -1.36017        1.56252        0.54892
N         -2.59389        1.02242        0.72718
C         -3.25252        1.99206        1.30412
C         -2.51536        3.25040        1.55369
C          1.96612        1.98842       -0.23363
C          3.16909        2.81244       -0.30619
N          3.29431        3.82937        0.51460
C          4.50271        4.34625        0.21843
C          5.11670        3.59709       -0.84508
C          6.43074        4.24687       -1.15063
O          7.19630        4.02067       -2.06198
C          6.49664        5.34855       -0.15451
C          5.27940        5.34985        0.61006
N          5.27493        6.38662        1.48712
C          6.42562        6.95768        1.26376
C          7.29044        6.33927        0.23437
C          4.33365        2.58709       -1.25004
C          4.61661        1.62147       -2.28407
N          3.74687        1.14160       -3.29229
C          2.36180        1.43292       -3.59388
C          2.00387        2.88182       -3.82429
C          4.37978        0.16414       -4.10048
O          3.92909       -0.47990       -5.02771
C          5.74268        0.12115       -3.57179
C          5.81686        1.02836       -2.45814
C          7.19733        0.91545       -1.91781
O          7.63647        1.44238       -0.91615
N          7.81388       -0.00769       -2.79401
C          9.22102       -0.35289       -2.68553
C          9.48841       -1.36242       -1.58384
C          6.91037       -0.50649       -3.73390
C          7.18536       -1.63143       -4.59322
C          6.55366       -1.88770       -5.74910
C          6.74004       -3.18524       -6.43146
N          7.49149       -4.14693       -5.95054
C          7.32507       -5.14869       -6.84579
C          6.44178       -4.74046       -7.90830
C          6.34713       -5.85373       -8.89224
O          5.79350       -5.89725       -9.96623
C          7.20554       -6.89790       -8.27675
C          7.75227       -6.39007       -7.04761
N          8.57105       -7.31238       -6.48014
C          8.51242       -8.30533       -7.32586
C          7.65516       -8.12260       -8.51802
C          6.01582       -3.49597       -7.70592
C          5.11466       -2.73866       -8.57632
N          4.11265       -3.24674       -9.25480
C          3.56569       -2.17085       -9.88391
C          4.29415       -0.98444       -9.52987
C          3.69192        0.18526      -10.20989
O          4.01560        1.34924      -10.14560
C          2.59440       -0.43615      -10.98380
C          2.58976       -1.85975      -10.73109
N          1.59365       -2.44387      -11.44716
C          1.04652       -1.43910      -12.07158
C          1.61875       -0.09642      -11.82352
C          5.30818       -1.27210       -8.72434
H          2.52541       -0.05485       -0.94182
H         -4.30719        1.92203        1.60981
H         -2.85651        4.14605        2.02889
H          6.77122        7.86740        1.77855
H          8.25831        6.65457       -0.09913
H          1.73182        0.99324       -2.83078
H          2.07465        0.88499       -4.50102
H          2.35942        3.53866       -3.03040
H          0.91310        2.97287       -3.87671
H          2.41484        3.22998       -4.77608
H          9.77732        0.56653       -2.46556
H          9.59321       -0.72524       -3.64683
H          9.16256       -0.97854       -0.61202
H         10.55938       -1.58049       -1.52044
H          8.95692       -2.30025       -1.77122
H          7.88764       -2.36565       -4.19693
H          5.82779       -1.20110       -6.15655
H          9.06377       -9.24904       -7.20264
H          7.49189       -8.79431       -9.33514
H          0.19619       -1.53096      -12.76530
H          1.32191        0.84675      -12.22253
H          6.05627       -0.62465       -8.31654
