92

C          2.68783        0.94507        0.04764
C          1.58930        0.20308       -0.34523
C          1.35484       -1.15162        0.09580
N          0.23155       -1.77009       -0.33834
C         -0.59341       -1.11423       -1.18212
C         -0.33684        0.16740       -1.59560
N          0.75109        0.84027       -1.17711
C          2.26066       -1.84501        0.95673
C          3.41853       -1.09594        1.35039
C          3.61532        0.31883        0.89459
N          4.73259        0.89099        1.36642
S          5.49603       -0.25124        2.28930
N          4.44311       -1.51467        2.11678
C          2.07614       -3.25293        1.41332
C          2.49908       -3.70419        2.67568
C          2.34379       -5.05063        3.06370
N          2.88074       -5.41416        4.36307
O          4.10338       -5.28548        4.51920
O          2.08276       -5.79513        5.22602
C          1.71868       -6.00152        2.24559
C          1.29216       -5.54929        0.99160
C          1.47714       -4.21954        0.58777
C          1.55804       -7.42472        2.59921
C          0.56249       -8.19920        2.13734
C          0.39717       -9.57464        2.49686
N          0.35953      -10.61695        1.57014
C          0.62485      -10.51287        0.14902
C          2.11133      -10.62600       -0.15467
C          0.19464      -11.86658        2.20429
O          0.16574      -12.98305        1.72834
C          0.09467      -11.49682        3.62663
C          0.22695      -10.06958        3.72389
C          0.12328       -9.69527        5.14250
O          0.17458       -8.58288        5.61781
N         -0.04849      -10.94256        5.77765
C         -0.14635      -11.05742        7.21415
C         -1.54576      -10.75187        7.72037
C         -0.06341      -11.98695        4.85372
C         -0.22709      -13.36109        5.22353
C          0.67475      -14.30414        4.91149
C          0.52804      -15.72376        5.24546
C          1.67533      -16.47786        5.50617
C          1.55714      -17.84977        5.77055
N          2.77297      -18.57392        6.09136
O          3.42746      -18.16150        7.05971
O          3.09507      -19.51592        5.35679
C          0.31599      -18.49761        5.77648
C         -0.82621      -17.72994        5.51890
C         -0.71974      -16.36132        5.24750
C          0.13030      -19.91291        6.09711
C          0.13588      -20.88695        5.17112
C         -0.06423      -22.32396        5.46618
C          0.53521      -23.35347        4.69585
C          0.33283      -24.74747        5.01373
N          0.90921      -25.73010        4.30388
C          1.70413      -25.36464        3.27985
C          1.90999      -24.04450        2.95793
N          1.32880      -23.03486        3.64386
C         -0.45873      -25.17618        6.06656
C         -1.08746      -24.19023        6.84678
C         -0.90457      -22.73492        6.54532
N         -1.61899      -21.95898        7.38216
S         -2.37555      -22.95340        8.46460
N         -1.88205      -24.42933        7.90060
H          2.83475        1.96408       -0.29035
H         -1.46730       -1.66031       -1.51823
H         -0.99633        0.69408       -2.27526
H          2.96579       -3.01964        3.38249
H          0.81662       -6.22178        0.28118
H          1.13321       -3.96192       -0.41252
H          2.29353       -7.84511        3.28432
H         -0.20092       -7.80867        1.46996
H          0.21971       -9.57230       -0.23797
H          0.09839      -11.32831       -0.35918
H          2.67849       -9.83053        0.33899
H          2.28740      -10.55485       -1.23221
H          2.51067      -11.58438        0.19404
H          0.55515      -10.34064        7.65708
H          0.16696      -12.05643        7.53330
H         -1.84772       -9.73268        7.45684
H         -1.58194      -10.84467        8.81057
H         -2.28091      -11.44013        7.29147
H         -1.12793      -13.59786        5.78365
H          1.58634      -14.03533        4.37957
H          2.65589      -16.00503        5.51451
H         -1.81459      -18.18758        5.53351
H         -1.62839      -15.80463        5.02595
H         -0.01519      -20.11283        7.15472
H          0.34179      -20.65014        4.12696
H          2.17182      -26.17069        2.72775
H          2.55646      -23.75527        2.13670
H         -0.59139      -26.22926        6.28282
