96

C          3.41647        2.68774        0.36639
C          3.16604        3.80279        1.12220
S          4.37481        3.98187        2.35148
C          5.20053        2.58248        1.83851
Cl         6.59899        2.06429        2.68158
C          4.58961        2.00488        0.76676
C          4.86407        0.84745       -0.03460
O          5.87071        0.16951       -0.03008
C          3.60272        0.72827       -0.89924
C          2.80826        2.01040       -0.75671
C          1.81651        2.48406       -1.54586
C          1.18785        3.73904       -1.29573
N          0.67655        4.75645       -1.08443
C          1.35061        1.80133       -2.70253
N          0.97241        1.23243       -3.64033
C          3.23809       -0.40136       -1.54228
C          3.90793       -1.71532       -1.60697
C          3.82275       -2.47307       -2.78238
C          4.41857       -3.74893       -2.84688
N          4.24590       -4.49093       -4.08534
O          4.65847       -3.95749       -5.12380
O          3.63256       -5.56503       -4.02062
C          5.12744       -4.29712       -1.76707
C          5.13991       -3.54845       -0.58224
C          4.52252       -2.29767       -0.49820
C          5.82311       -5.59543       -1.79944
C          6.93091       -5.84342       -1.08338
C          7.64426       -7.08089       -1.12262
N          7.92190       -7.84697        0.00848
C          7.40987       -7.61140        1.34542
C          6.04938       -8.25773        1.56310
C          8.67365       -8.99368       -0.31824
O          9.06723       -9.89719        0.39104
C          8.87419       -8.84573       -1.77404
C          8.19170       -7.65608       -2.19302
C          8.37098       -7.50905       -3.64768
O          7.93262       -6.62789       -4.35671
N          9.15363       -8.63433       -3.97139
C          9.58182       -8.91379       -5.32712
C          8.56763       -9.74685       -6.09438
C          9.43944       -9.40130       -2.84193
C         10.19130      -10.61444       -2.89335
C         11.27240      -10.85870       -2.13581
C         11.95671      -12.15436       -2.14966
C         13.33555      -12.22834       -1.94897
C         13.96446      -13.48698       -1.92863
N         15.40723      -13.49277       -1.75876
O         16.07218      -12.85436       -2.58499
O         15.87318      -14.12875       -0.80397
C         13.25272      -14.68884       -2.10300
C         11.86536      -14.58401       -2.27124
C         11.23056      -13.34181       -2.29170
C         13.85155      -16.03584       -2.04663
C         13.44368      -17.06580       -2.80738
C         13.97110      -18.40128       -2.66550
C         15.23750      -18.80530       -2.84486
C         15.60349      -20.15934       -2.25596
O         14.86273      -21.06732       -1.93323
C         17.02824      -20.04540       -2.10746
C         18.00159      -20.83723       -1.58024
S         19.53446      -20.09475       -1.67316
C         18.89051      -18.68935       -2.45703
C         17.53983      -18.82605       -2.63037
C         16.47425      -18.08567       -3.25948
C         16.60163      -17.12221       -4.20106
C         17.85943      -16.52929       -4.50560
N         18.88892      -16.05109       -4.74532
C         15.52033      -16.73640       -5.04487
N         14.65626      -16.45587       -5.76757
Cl        17.85104      -22.39464       -0.88403
H          2.37199        4.53539        1.06988
H          2.29914       -0.43624       -2.08698
H          3.29114       -2.08579       -3.65170
H          5.63447       -3.91824        0.31410
H          4.55764       -1.79228        0.46343
H          5.41758       -6.36831       -2.44989
H          7.37700       -5.08808       -0.44083
H          7.35641       -6.53450        1.53606
H          8.11976       -8.03369        2.06567
H          5.31336       -7.89400        0.83892
H          5.67841       -8.03295        2.56825
H          6.11045       -9.34613        1.45905
H         10.55605       -9.41456       -5.31116
H          9.71821       -7.95709       -5.84509
H          8.44720      -10.73841       -5.64612
H          8.89507       -9.88056       -7.13014
H          7.58492       -9.26408       -6.10556
H          9.81762      -11.35753       -3.59309
H         11.66821      -10.10260       -1.46044
H         13.92060      -11.31971       -1.81420
H         11.24092      -15.46943       -2.37381
H         10.14767      -13.32290       -2.40157
H         14.62536      -16.18739       -1.29674
H         12.63717      -16.95848       -3.53213
H         13.22943      -19.11886       -2.30566
H         19.56225      -17.88769       -2.73468
