82

C          0.26423        0.65744       -0.40322
S          0.41334       -0.87339       -1.09983
C         -0.88536       -1.55072       -0.14289
C         -1.52987       -0.53570        0.57167
C         -0.82660        0.72430        0.42083
C         -2.75414       -0.58482        1.40272
O         -3.42349        0.45414        1.49783
C         -3.18541       -1.81989        2.18588
F         -2.34658       -2.88676        2.11630
F         -3.30894       -1.54942        3.51915
F         -4.40795       -2.27332        1.78394
C         -1.12780       -2.96080       -0.25215
C         -0.09930       -3.81738       -0.38625
C         -0.20865       -5.26492       -0.34756
C         -0.61279       -6.03955       -1.41017
N         -0.63812       -7.38507       -1.37189
C         -0.20090       -7.96996       -0.24130
N          0.22737       -7.30790        0.84606
C          0.20288       -5.96526        0.76826
C         -0.27663       -9.42561       -0.17372
N         -0.59687      -10.19667        0.95577
C         -0.88266       -9.73734        2.29939
C          0.14673      -10.22972        3.31030
C         -0.72954      -11.55568        0.62552
O         -1.06647      -12.48490        1.32971
C         -0.37849      -11.58518       -0.80247
C         -0.11657      -10.23655       -1.22815
C          0.19231      -10.27855       -2.66887
O          0.49052       -9.35123       -3.40049
N          0.09110      -11.65238       -2.97275
C          0.31435      -12.15891       -4.31325
C         -0.97614      -12.29768       -5.10681
C         -0.24641      -12.40525       -1.84648
C         -0.48381      -13.81838       -1.88627
C         -0.34997      -14.64956       -0.84159
C         -0.71061      -16.05663       -0.91908
N         -0.63648      -16.65679       -2.11844
C         -1.04089      -17.93163       -2.15885
C         -1.53397      -18.60213       -1.06539
C         -1.58395      -17.89137        0.11537
N         -1.15125      -16.62218        0.21242
C         -2.12873      -18.42765        1.36596
C         -2.67538      -19.64459        1.51146
C         -3.19939      -20.07776        2.75650
S         -4.40141      -21.27530        2.78530
C         -4.51276      -21.28527        4.51101
C         -3.63446      -20.34545        5.07303
C         -2.88273      -19.68667        4.03794
C         -3.49893      -20.09249        6.53286
O         -4.19550      -20.72329        7.33759
C         -2.50500      -19.04733        7.06489
F         -1.75700      -18.39651        6.13297
F         -3.13680      -18.06343        7.76908
F         -1.60153      -19.60262        7.92437
C         -5.46220      -22.15875        5.13779
C         -5.85486      -23.33075        4.61634
H          0.95610        1.44786       -0.65943
H         -1.12386        1.64160        0.91873
H         -2.14069       -3.34045       -0.13689
H          0.93231       -3.47991       -0.46326
H         -0.91738       -5.60405       -2.35763
H          0.54767       -5.45152        1.66189
H         -1.86489      -10.13603        2.57733
H         -0.96231       -8.65150        2.35098
H          0.21027      -11.32304        3.32149
H         -0.12763       -9.90514        4.31896
H          1.14461       -9.84278        3.08130
H          0.84380      -13.11635       -4.26026
H          0.97301      -11.45824       -4.83946
H         -1.61196      -13.09026       -4.70044
H         -0.75518      -12.54926       -6.14917
H         -1.55441      -11.36836       -5.09159
H         -0.84673      -14.22146       -2.82899
H         -0.03318      -14.32109        0.14054
H         -0.96966      -18.41540       -3.12582
H         -1.86321      -19.62551       -1.16241
H         -2.08850      -17.72307        2.19453
H         -2.75687      -20.33235        0.67740
H         -2.11585      -18.94063        4.19528
H         -5.88126      -21.86334        6.09676
H         -5.47960      -23.72493        3.67720
H         -6.58128      -23.94577        5.13804
