66

C          0.07881        1.75067        0.06933
C         -1.21080        0.98993        0.02229
N         -2.37766        1.64158       -0.00732
S         -3.54336        0.44199       -0.08694
N         -2.56712       -0.91749       -0.10145
C         -1.31401       -0.45213       -0.01229
C         -0.13000       -1.38600        0.00100
C          1.16711       -0.61651       -0.02545
C          1.25600        0.82631        0.01094
N          2.49857        1.31791       -0.02713
S          3.49466       -0.02535       -0.11625
N          2.34684       -1.24337       -0.12573
C         -0.17883       -2.26129        1.24272
C         -0.22071       -3.01212        2.30787
C         -0.26954       -3.88741        3.54960
C         -0.31142       -4.63824        4.61475
C         -0.36024       -5.51353        5.85647
N         -0.49451       -4.99562        7.13940
C         -0.63714       -3.58959        7.46626
C         -2.08762       -3.13042        7.49043
C         -0.46823       -6.01676        8.10708
O         -0.56162       -5.94019        9.31473
C         -0.29349       -7.24337        7.29466
C         -0.24266       -6.84104        5.91024
C         -0.07129       -8.05385        5.09869
O         -0.01585       -8.11890        3.88794
N         -0.01923       -9.08225        6.07189
C          0.09621      -10.47965        5.69168
C          1.53714      -10.95759        5.56250
C         -0.17187       -8.57371        7.37204
C         -0.17270       -9.39698        8.56825
C         -0.86067       -9.07985        9.67757
C         -0.90108       -9.84063       10.87622
C         -1.05403      -10.34911       11.95879
C         -1.33641      -10.87332       13.37694
C         -1.57947      -11.28523       14.48460
C         -1.86599      -11.85553       15.82016
C         -3.32422      -11.67938       16.18438
N         -4.29758      -12.23230       15.44751
S         -5.72486      -11.82148       16.21927
N         -5.11965      -10.96958       17.52662
C         -3.79262      -10.98336       17.36501
C         -2.90605      -10.33185       18.38014
C         -1.46147      -10.55088       18.05436
C         -0.97519      -11.24235       16.87798
N          0.35777      -11.36786       16.82385
S          0.93205      -10.58977       18.19004
N         -0.51274      -10.11793       18.89087
H          0.12228        2.34267        0.99086
H          0.12092        2.44230       -0.78138
H         -0.17720       -2.02883       -0.88773
H         -0.06622       -2.99519        6.74568
H         -0.19337       -3.41673        8.45342
H         -2.55289       -3.23048        6.50496
H         -2.14956       -2.07441        7.77536
H         -2.67618       -3.71618        8.20426
H         -0.39679      -10.61295        4.72058
H         -0.45132      -11.09792        6.40956
H          2.07691      -10.39873        4.79050
H          1.55659      -12.01779        5.28505
H          2.08872      -10.84801        6.50122
H          0.41174      -10.31314        8.54035
H         -1.44291       -8.16398        9.71857
H         -1.65818      -12.93451       15.79620
H         -3.12162      -10.75104       19.37146
H         -3.11631       -9.25646       18.41669
