70

C          2.46616        3.00168        1.39107
C          1.71546        4.07758        1.78872
S          0.95014        3.74921        3.30667
C          1.63041        2.18994        3.39122
Cl         1.29363        1.19743        4.74685
C          2.40658        1.91777        2.30486
C          3.18469        0.78720        1.88334
O          3.32081       -0.28919        2.43225
C          3.81579        1.27923        0.57904
C          3.30519        2.66355        0.26420
C          3.51457        3.41526       -0.84296
C          2.93483        4.70557       -1.00451
N          2.46424        5.75710       -1.13864
C          4.30443        2.98465       -1.94923
N          4.94836        2.63017       -2.84403
C          4.71503        0.53570       -0.08791
C          5.12401       -0.84134        0.21578
C          4.43958       -1.91710       -0.35262
F          3.35466       -1.68547       -1.10919
C          4.89446       -3.22751       -0.18682
F          4.22392       -4.22244       -0.78957
C          6.05410       -3.50556        0.54944
C          6.69687       -2.42066        1.16586
C          6.24675       -1.11150        0.99322
F          6.93429       -0.10299        1.55106
F          7.78855       -2.61565        1.92204
C          6.54328       -4.89576        0.66176
C          7.84370       -5.20569        0.79590
C          8.34602       -6.56912        0.90863
C          8.73542       -7.30524       -0.18980
N          9.26113       -8.54445       -0.11756
C          9.39698       -9.08169        1.11971
N          9.03659       -8.44099        2.26106
C          8.53253       -7.19613        2.12365
C          9.95480      -10.45939        1.22669
N         10.79930      -10.88902        0.25959
C         11.27094      -12.14053        0.38067
C         10.92894      -12.98451        1.40857
C         10.05785      -12.47176        2.34500
N          9.56684      -11.21967        2.27524
C          9.61071      -13.30298        3.47276
C          8.80348      -12.84188        4.44076
C          8.34630      -13.65945        5.53867
C          7.96371      -13.23278        6.75201
C          7.12261      -14.20564        7.56767
O          7.02607      -15.41114        7.44433
C          6.41813      -13.32042        8.45352
C          5.42439      -13.47590        9.37081
S          4.97625      -11.98605       10.07000
C          6.14578      -11.11086        9.13785
C          6.84136      -11.96872        8.32925
C          7.93706      -11.88686        7.39299
C          8.85584      -10.89568        7.30886
C          8.68978       -9.66085        7.99978
N          8.53483       -8.65554        8.55970
C         10.10557      -11.05671        6.64266
N         11.15725      -11.18238        6.16878
Cl         4.62405      -14.91266        9.84880
H          1.54418        5.03750        1.32069
H          5.22379        0.89220       -0.97538
H          5.78641       -5.67752        0.59989
H          8.62089       -4.44583        0.82628
H          8.65023       -6.90726       -1.19728
H          8.28963       -6.69844        3.05914
H         11.95374      -12.45627       -0.40267
H         11.32638      -13.98831        1.46636
H          9.99015      -14.32018        3.50536
H          8.43857      -11.81700        4.38724
H          8.20317      -14.71313        5.28595
H          6.22442      -10.03967        9.26729
