79

C         -0.66979       -7.85112        3.01413
N          0.51199       -8.49573        2.75501
C          1.38746       -7.57520        2.24856
C          2.70883       -7.42482        1.75199
C          2.81882       -6.08150        1.41305
N          1.61949       -5.45749        1.68835
C          0.75833       -6.37696        2.19911
C         -0.56277       -6.51207        2.68558
C          3.87523       -5.32295        0.83167
C          4.01099       -4.01157        1.10027
C          5.03636       -3.17434        0.56711
S          5.63723       -1.95544        1.63645
C          6.73310       -1.36756        0.49169
C          6.67076       -2.03481       -0.71580
C          7.54204       -1.64592       -1.86917
C          5.66039       -3.07717       -0.67937
C          5.28192       -3.89307       -1.80723
C          6.11968       -4.32642       -2.75841
C          5.71990       -5.12181       -3.88751
C          6.60425       -5.88656       -4.54740
C          6.20637       -6.68552       -5.63967
S          5.01164       -6.25270       -6.78969
C          5.13233       -7.74489       -7.65760
C          6.11230       -8.49390       -7.06271
C          6.71318       -7.91166       -5.94091
S          7.95829       -9.00311       -5.20779
C          7.46361      -10.10879       -6.52442
N          6.52685       -9.75418       -7.41080
C          4.23847       -7.94688       -8.74551
C          4.27060       -9.05817       -9.48714
C          3.27076       -9.35282      -10.49568
C          2.92570      -10.59706      -10.86186
C          1.86738      -10.92483      -11.78582
C          1.58981      -12.23481      -11.84170
C          2.40987      -13.04978      -10.95756
S          3.62578      -12.04324      -10.18491
C          2.27664      -14.36062      -10.68841
C          1.29414      -15.27448      -11.24118
C          1.29534      -16.48489      -10.66789
C          2.26817      -16.62678       -9.60438
S          3.27954      -15.20881       -9.50800
C          2.35341      -17.68320       -8.78301
C          3.25173      -17.73641       -7.69288
S          4.86240      -18.37051       -7.75083
C          5.18297      -18.00954       -6.07384
C          4.06990      -17.44914       -5.55532
C          3.02145      -17.30364       -6.43455
O          1.88086      -16.73416       -5.95040
C          2.28678      -16.50054       -4.64968
N          1.31498      -15.86451       -3.80732
O          1.66850      -15.64619       -2.63714
O          0.21400      -15.59101       -4.29210
C          3.58871      -16.92155       -4.34718
H         -1.51203       -8.39968        3.42046
H          0.73434       -9.47613        2.89125
H          3.47230       -8.18378        1.65591
H          1.36873       -4.48695        1.53884
H         -1.32486       -5.75069        2.77584
H          4.58285       -5.84349        0.19439
H          3.35161       -3.54195        1.82662
H          7.37166       -0.53417        0.74370
H          8.14929       -0.76757       -1.63203
H          6.93994       -1.41137       -2.75232
H          8.24683       -2.44829       -2.10809
H          4.23876       -4.20316       -1.85903
H          7.17740       -4.09880       -2.71375
H          4.67171       -5.08019       -4.17560
H          7.63564       -5.95104       -4.20834
H          7.94919      -11.07546       -6.57631
H          3.46016       -7.20746       -8.91732
H          5.02524       -9.81909       -9.29959
H          2.74627       -8.50454      -10.92099
H          1.32989      -10.16702      -12.34214
H          0.80292      -12.64639      -12.45960
H          0.61289      -14.99318      -12.03190
H          0.61587      -17.28225      -10.94001
H          1.67203      -18.52065       -8.90129
H          6.14119      -18.23197       -5.62379
H          4.08309      -16.83417       -3.38898
