122

C          3.44940       -9.22418       -4.55546
C          3.37111       -9.75883       -5.96404
O          4.30800       -9.97623       -6.70347
C          1.91140       -9.92746       -6.24244
C          1.17906       -9.46173       -5.12760
C          2.12470       -9.44694       -3.98864
C          1.88481      -10.28489       -2.94285
C          2.93685      -11.11049       -2.42930
N          3.75837      -11.85580       -2.09866
C          0.56727      -10.64696       -2.53071
N         -0.51124      -10.92399       -2.20451
C         -0.19434       -9.32225       -5.17779
C         -0.85639       -9.84979       -6.28462
C         -0.15364      -10.52629       -7.30726
C          1.26201      -10.53838       -7.31841
C          1.92862      -11.24438       -8.34386
C          1.20530      -11.97767       -9.28966
C         -0.18419      -11.98509       -9.25190
C         -0.85988      -11.24264       -8.28440
C          4.51232       -8.59647       -4.02201
C          4.54125       -7.84575       -2.70446
O          5.02822       -8.71956       -1.69249
C          5.31108       -8.13106       -0.49955
C          5.98736       -8.84376        0.46374
S          6.28821       -7.92097        1.87336
C          5.48057       -6.55885        1.22300
C          5.01475       -6.80986       -0.04490
O          4.29831       -5.88268       -0.71450
C          4.95437       -5.42521       -1.90162
C          5.40327       -6.57432       -2.81634
O          6.39314       -6.47531       -3.54496
C          4.03631       -4.44829       -2.63090
C          4.08761       -4.23153       -3.97400
C          3.47399       -3.03155       -4.51252
C          3.60466       -2.43737       -5.72942
C          4.10509       -2.93298       -7.07414
C          5.61500       -2.69727       -7.30070
N          6.48228       -3.42713       -6.38339
C          3.65211       -4.39248       -7.37594
N          4.05823       -4.92621       -8.68005
C          3.24591       -1.04068       -5.45418
C          3.69214        0.09286       -6.01972
C          3.49575        1.44482       -5.33542
C          2.54260        1.42255       -4.14807
C          2.09269        0.28425       -3.59898
C          2.59807       -0.93547       -4.15500
C          2.77954       -2.12360       -3.57632
C          2.52029       -2.52460       -2.22546
C          3.14439       -3.62415       -1.77527
C          3.02744        2.45874       -6.32827
C          3.34280        3.76415       -6.26393
C          2.84807        4.81557       -7.22043
O          2.02786        4.20032       -8.20261
C          1.60860        5.02097       -9.19128
C          0.89306        4.47554      -10.23377
S          0.50651        5.64519      -11.41904
C          1.29589        6.88307      -10.53262
C          1.79546        6.42338       -9.34074
O          2.47494        7.26012       -8.51000
C          1.98981        7.25442       -7.16245
C          2.05031        5.88739       -6.46734
O          1.50326        5.69902       -5.37497
C          2.87180        8.21623       -6.39037
C          2.87639        8.61564       -5.10411
C          4.12672        9.30316       -4.61527
O          4.96629        9.83683       -5.31138
C          4.15732        9.11652       -3.14373
C          2.97692        8.45731       -2.73965
C          2.06114        8.33760       -3.91487
C          0.70906        8.28043       -3.84027
C         -0.11639        8.57677       -4.96234
N         -0.78620        8.87276       -5.86299
C         -0.00417        8.05835       -2.62340
N         -0.58518        7.87613       -1.63903
C          2.84289        8.08324       -1.41127
C          3.85004        8.42433       -0.49945
C          5.00828        9.12330       -0.89397
C          5.19006        9.47623       -2.25222
C          6.37409       10.15882       -2.61214
C          7.33894       10.49128       -1.65774
C          7.14539       10.14674       -0.32779
C          5.98863        9.46574        0.05258
H         -0.76568       -8.89944       -4.35721
H         -1.94548       -9.80873       -6.30491
H          3.01261      -11.28340       -8.37755
H          1.73652      -12.56543      -10.03420
H         -0.74512      -12.58305       -9.96511
H         -1.94827      -11.27304       -8.26747
H          5.42246       -8.53915       -4.62246
H          3.51435       -7.53878       -2.46271
H          6.32731       -9.86848        0.40474
H          5.39628       -5.64592        1.79948
H          5.85200       -4.86860       -1.59216
H          4.77405       -4.77081       -4.61756
H          3.59088       -2.32509       -7.83563
H          5.84882       -1.62990       -7.23053
H          5.87746       -2.98643       -8.32498
H          6.46076       -2.96579       -5.47252
H          7.44893       -3.36448       -6.70101
H          2.55630       -4.43554       -7.33909
H          4.01170       -5.09349       -6.61978
H          3.89809       -4.24232       -9.41568
H          5.06402       -5.10649       -8.65995
H          4.33201        0.07095       -6.89432
H          4.48083        1.74842       -4.95111
H          2.25039        2.37396       -3.71146
H          1.43223        0.27622       -2.74102
H          1.87627       -1.92670       -1.58769
H          2.99692       -3.91109       -0.73840
H          2.36478        2.09204       -7.10957
H          3.97771        4.11883       -5.45328
H          3.74489        5.25896       -7.67254
H          0.59587        3.44263      -10.36152
H          1.33675        7.88522      -10.93150
H          0.95680        7.59880       -7.19351
H          3.70444        8.57879       -7.00203
H          1.98655        7.53364       -1.03462
H          3.71928        8.14013        0.54535
H          6.55853       10.44995       -3.64535
H          8.23743       11.02365       -1.95937
H          7.89264       10.41159        0.41990
H          5.85858        9.20644        1.10101
