98

C         11.93626        3.81869       -9.62500
C         11.58809        4.49158      -10.78788
F         11.83501        3.92061      -11.97419
C         11.01596        5.75556      -10.74084
C         10.74008        6.34727       -9.50459
C         11.07577        5.69276       -8.30853
C         11.72633        4.42324       -8.38211
C         12.21786        3.81232       -7.22269
C         12.10485        4.48632       -6.02103
C         11.31268        5.64122       -5.92994
C         10.80887        6.27200       -7.05397
C         11.16041        6.02958       -4.50549
O         10.48671        6.93436       -4.06383
C         11.96654        5.01738       -3.73026
C         12.78313        4.31516       -4.72075
C         14.09916        4.01831       -4.60901
C         14.84251        4.36739       -3.44139
N         15.42884        4.69261       -2.49455
C         14.86640        3.50264       -5.68563
N         15.47569        3.06489       -6.57743
C         11.76944        4.79456       -2.42107
C         12.28322        3.69885       -1.64495
C         12.56171        2.30421       -2.09503
N         12.88215        1.43026       -1.18536
C         12.80492        2.15642       -0.04279
C         12.47033        3.53149       -0.33526
C         12.35268        4.28307        0.94645
S         12.27635        5.93006        1.15304
C         12.40349        3.17120        1.95409
C         12.76683        1.94631        1.26832
N         12.78155        0.88971        2.12302
C         12.38769        1.42631        3.24457
C         12.10273        2.88331        3.21984
C         11.48609        3.65767        4.21402
N         11.66342        5.02261        4.19490
C         10.94225        5.56753        5.21371
C         10.60707        6.81160        5.79353
C          9.76135        6.49246        6.84082
N          9.59163        5.12576        6.90023
C         10.32326        4.56881        5.88581
C         10.65364        3.33098        5.27836
C          9.03634        7.29490        7.74759
C          9.54309        7.60593        8.94894
C          8.87455        8.45989        9.88307
C          8.00273        9.62697        9.57134
N          7.59591       10.34682       10.57903
C          8.19481        9.74143       11.63541
C          8.92544        8.57142       11.21055
C          9.53510        7.92933       12.41303
S         10.10573        6.37677       12.56933
C          9.36044        9.00020       13.45070
C          8.42513        9.97719       12.92179
N          8.16276       10.94531       13.83292
C          8.96963       10.63757       14.80489
C          9.83818        9.43336       14.61638
C         10.83392        9.05368       15.57054
C         12.00935        8.41861       15.45466
C         12.70114        8.05219       16.74047
O         12.55626        8.55824       17.83323
C         13.55329        6.89922       16.41301
C         14.24445        6.11115       17.31593
C         14.86413        4.95419       16.83395
C         14.73821        4.60371       15.45567
C         15.31136        3.40645       15.00655
C         16.01370        2.59289       15.89002
C         16.16662        2.94270       17.22457
C         15.58893        4.12000       17.69841
F         16.55468        1.45205       15.44355
C         14.04813        5.45208       14.56485
C         13.49233        6.63091       15.03916
C         12.76659        7.75725       14.38716
C         13.02579        8.20949       13.13694
C         12.52148        9.45189       12.66095
N         12.09355       10.45068       12.25613
C         13.85887        7.50498       12.21887
N         14.52245        6.92328       11.46558
H         12.40464        2.84161       -9.71059
H         10.79169        6.27366      -11.66741
H         10.29256        7.33934       -9.48737
H         12.74258        2.86174       -7.28927
H         10.26718        7.20830       -6.95825
H         11.09856        5.46855       -1.88437
H         12.47389        2.04499       -3.15833
H         12.25736        0.86248        4.18075
H         12.18629        5.58212        3.52840
H         10.92059        7.79731        5.47878
H          9.02394        4.59429        7.54733
H         10.30625        2.34539        5.55829
H          8.06429        7.65636        7.42521
H         10.52005        7.22368        9.24413
H          7.74722        9.84875        8.52480
H          9.04347       11.21286       15.74154
H         10.55467        9.36721       16.58274
H         14.27191        6.38424       18.36726
H         15.22321        3.09043       13.97070
H         16.72886        2.29431       17.88923
H         15.70875        4.37906       18.74874
H         13.94835        5.15770       13.52315
