132

C        -10.78364      -12.24166       11.39445
C        -10.28968      -11.26124       12.26189
C        -10.20690       -9.92096       11.86533
C        -10.63403       -9.52723       10.59870
C        -11.17652      -10.48627        9.75444
C        -11.23607      -11.85939       10.13910
C        -11.75362      -12.66373        8.97562
C        -12.26157      -13.91732        8.97868
C        -12.35891      -14.70076       10.16156
N        -12.43775      -15.33849       11.12792
C        -12.79970      -14.51374        7.79645
N        -13.21246      -14.98996        6.83610
C        -11.69095      -11.72654        7.82154
C        -11.77456      -10.36387        8.39437
C        -12.55885       -9.33436        7.99352
C        -13.53291       -9.48088        6.96368
N        -14.38716       -9.57952        6.18405
C        -12.61685       -8.09510        8.69429
N        -12.64873       -7.08098        9.25812
C        -11.16639      -12.08310        6.63071
C        -10.62904      -11.16490        5.68552
S        -11.65600      -10.51873        4.47130
C        -10.43099       -9.51421        3.80336
C         -9.21291       -9.84282        4.35038
C         -9.32221      -10.77831        5.44127
C         -8.21045      -11.26063        6.14847
C         -6.97697      -10.73877        5.65931
C         -5.72504      -11.23168        6.29853
O         -5.74678      -12.36639        6.78374
C         -4.49476      -10.32710        6.34254
F         -4.66921       -9.08053        5.81948
F         -4.07007      -10.11826        7.61966
F         -3.44198      -10.86731        5.66789
C         -6.89215       -9.83077        4.55867
C         -8.00518       -9.33732        3.86701
C        -10.82050       -8.59967        2.79756
C        -10.19901       -7.42426        2.60255
C        -10.58013       -6.48114        1.56541
C        -11.19575       -6.96742        0.46183
C        -11.56621       -6.11864       -0.63202
C        -12.23000       -6.38274       -1.79324
C        -13.04045       -7.60578       -2.27909
C        -12.65499       -8.94572       -1.57738
N        -13.36593      -10.15040       -2.02746
C        -14.58447       -7.34453       -2.14303
N        -15.44164       -8.45809       -2.59855
C        -11.82987       -5.23169       -2.62874
C        -11.69333       -5.11631       -3.96011
C        -10.95054       -3.92963       -4.58553
C        -10.61530       -2.80096       -3.61471
C        -10.76357       -2.92054       -2.28714
C        -11.21214       -4.19201       -1.80234
C        -11.04758       -4.73773       -0.59737
C        -10.41322       -4.21387        0.58933
C        -10.20197       -5.05447        1.62012
C        -11.70588       -3.43358       -5.78131
C        -12.65313       -2.48365       -5.75916
C        -13.30932       -2.14139       -6.96387
S        -12.64510       -0.90798       -7.94483
C        -13.83490       -1.09172       -9.19033
C        -14.74817       -2.06373       -8.81677
C        -14.44767       -2.65705       -7.53946
C        -15.19220       -3.68384       -6.94490
C        -16.30140       -4.07843       -7.72080
C        -17.18814       -5.18397       -7.24043
O        -17.73865       -5.88357       -8.09619
C        -17.38665       -5.40916       -5.73955
F        -16.75750       -4.51584       -4.92569
F        -18.70195       -5.35046       -5.38682
F        -16.94412       -6.63860       -5.34519
C        -16.59317       -3.49219       -9.00747
C        -15.83487       -2.45532       -9.60826
C        -13.71398       -0.36370      -10.41255
C        -13.13624        0.84780      -10.50195
C        -12.87697        1.45402      -11.79080
C        -12.27288        2.62756      -12.06118
C        -11.64788        2.92093      -13.38230
C        -12.18202        2.69160      -14.60580
C        -13.46983        2.10143      -14.77309
N        -14.50668        1.59562      -14.89942
C        -11.52812        3.06008      -15.81337
N        -10.99882        3.35012      -16.80404
C        -10.34998        3.60117      -13.04625
C        -10.34510        3.92526      -11.65696
C         -9.21575        4.46820      -11.05701
C         -8.10671        4.75607      -11.85202
C         -8.11883        4.47336      -13.22188
C         -9.23020        3.87407      -13.82182
C        -11.68073        3.57408      -11.09138
C        -12.31504        4.23848      -10.09633
C        -11.65318        5.17663       -9.25125
N        -11.09799        5.91459       -8.54885
C        -13.72930        4.15098       -9.93312
N        -14.88480        4.14030       -9.82856
H        -10.78434      -13.27122       11.73447
H         -9.95026      -11.54500       13.25666
H         -9.80532       -9.17825       12.55221
H        -10.52978       -8.48579       10.31159
H        -10.96505      -13.12570        6.39823
H         -8.26155      -11.97623        6.96017
H         -5.93063       -9.49092        4.17765
H         -7.88000       -8.66811        3.02640
H        -11.68625       -8.87649        2.20067
H         -9.37211       -7.10420        3.23019
H        -11.27486       -8.03102        0.32129
H        -12.82875       -7.74570       -3.34630
H        -12.85930       -8.86612       -0.50655
H        -11.58673       -9.13562       -1.72508
H        -14.30728       -9.84158       -2.32104
H        -13.57783      -10.72532       -1.20879
H        -14.86838       -6.45829       -2.72027
H        -14.83730       -7.14702       -1.09401
H        -15.32216       -8.60371       -3.60327
H        -16.42657       -8.22377       -2.46520
H        -11.98084       -5.92795       -4.61918
H         -9.98238       -4.30422       -4.94834
H        -10.20445       -1.88000       -4.02040
H        -10.49758       -2.12636       -1.59994
H        -10.09568       -3.17875        0.62817
H         -9.69409       -4.69538        2.51172
H        -11.44054       -3.91538       -6.72197
H        -12.95219       -1.98460       -4.84212
H        -14.91331       -4.13501       -6.00295
H        -17.45194       -3.86500       -9.57275
H        -16.09091       -2.03478      -10.57294
H        -14.08055       -0.85947      -11.30902
H        -12.77130        1.35110       -9.61220
H        -13.08700        0.76818      -12.61078
H         -9.15667        4.67259       -9.99310
H         -7.22264        5.20336      -11.40159
H         -7.24412        4.70946      -13.82532
H         -9.16727        3.63315      -14.87670
