93

C         -6.93498       -1.00281        1.25629
O         -7.16313       -0.71018        0.10351
C         -7.69257       -1.95236        2.08105
C         -6.97344       -2.27247        3.24913
C         -7.57671       -3.08658        4.20050
C         -8.86859       -3.56832        3.95040
C         -9.55889       -3.24330        2.78019
C         -8.96772       -2.42479        1.83093
F         -9.64065       -2.07055        0.72983
F        -10.80420       -3.69950        2.59099
F         -9.45668       -4.34158        4.87320
C         -5.66750       -1.55089        3.20432
C         -4.54383       -1.86070        3.89710
C         -4.49824       -2.92559        4.84204
N         -4.47762       -3.79342        5.60843
C         -3.30622       -1.18865        3.68413
N         -2.30454       -0.62700        3.51154
C         -5.79633       -0.54680        2.12563
C         -5.21770        0.66174        2.02783
C         -5.59577        1.63353        1.06074
C         -5.07211        1.85207       -0.21199
C         -5.67643        2.96899       -0.82557
C         -6.63282        3.54224       -0.01712
S         -6.82193        2.80683        1.46074
C         -7.17574        4.66415       -0.68029
C         -6.54551        4.81474       -1.89270
C         -5.58181        3.72740       -2.07273
C         -4.80642        3.46521       -3.14044
C         -4.82387        4.28752       -4.29976
N         -4.82540        4.95830       -5.24500
C         -3.92659        2.34809       -3.16924
N         -3.20163        1.44139       -3.18998
C         -7.00163        5.96493       -2.57383
C         -8.01326        6.63187       -1.86630
S         -8.36322        5.77819       -0.37702
C         -8.78584        7.85112       -2.24103
C         -9.29906        8.80958       -1.32954
C        -10.07903        9.94844       -1.75375
N        -10.56152       10.80345       -0.82452
C        -10.33334       10.56870        0.47824
C         -9.57058        9.51232        0.87941
N         -9.04267        8.65171       -0.01083
C        -10.36073       10.21811       -3.11269
C         -9.83885        9.29640       -4.06394
C         -9.04794        8.09378       -3.62256
N         -8.66850        7.33019       -4.66422
S         -9.19526        8.05494       -6.04738
N         -9.98209        9.35193       -5.40203
C        -11.16493       11.36367       -3.60815
C        -11.01735       12.11433       -4.78302
C        -12.05019       13.06290       -4.92738
C        -12.92905       13.01884       -3.86953
S        -12.57961       11.88316       -2.72132
C        -13.98637       13.91757       -4.10898
C        -13.79059       14.49860       -5.33854
C        -12.51302       14.05547       -5.89233
C        -11.88083       14.53063       -6.98250
C        -12.45919       15.57378       -7.76069
N        -12.97892       16.43250       -8.34433
C        -10.58802       14.07535       -7.36198
N         -9.53018       13.71721       -7.66946
C        -14.89446       15.28270       -5.71378
C        -15.80069       15.42893       -4.65978
S        -15.37297       14.38735       -3.32584
C        -16.98403       16.21760       -4.56687
C        -17.16050       17.37707       -5.21993
C        -18.56894       17.86143       -5.41217
O        -19.53307       17.61157       -4.72187
C        -18.53950       18.61380       -6.67995
C        -17.21595       18.71202       -7.15741
C        -16.31377       18.18340       -6.10462
C        -15.04584       18.60245       -5.86276
C        -14.34871       19.47229       -6.74566
N        -13.79525       20.19191       -7.47261
C        -14.35415       18.28477       -4.65580
N        -13.77881       18.04174       -3.67703
C        -16.98709       19.21147       -8.43181
C        -18.08384       19.66593       -9.17090
C        -19.38378       19.61958       -8.65741
C        -19.62088       19.07648       -7.40179
F        -20.86869       18.98693       -6.92749
F        -20.40645       20.07562       -9.39376
F        -17.87392       20.14630      -10.40353
H         -7.11530       -3.35177        5.14544
H         -4.48431        1.00227        2.75239
H         -4.29304        1.22714       -0.63094
H         -6.63631        6.30764       -3.53430
H        -10.78488       11.26062        1.17883
H         -9.35917        9.31675        1.92343
H        -10.22688       11.93291       -5.50144
H        -15.02780       15.75787       -6.67628
H        -17.81646       15.79735       -4.00064
H        -16.00364       19.24740       -8.88997
