98

C          0.78325       -1.68301        4.36122
O         -0.19118       -2.36612        4.58175
C          1.69029       -1.25666        5.42099
C          2.37403       -0.09909        5.03577
C          3.32277        0.41535        5.90618
C          3.56006       -0.24559        7.13224
C          2.84970       -1.41352        7.48177
C          1.88773       -1.92419        6.61725
Br         3.15829       -2.38699        9.08213
Br         4.89431        0.50222        8.26212
C          1.90949        0.26367        3.66373
C          1.90057        1.50474        3.12301
C          2.40357        2.63944        3.82198
N          2.80950        3.55327        4.41055
C          1.29796        1.77343        1.85984
N          0.81887        1.97563        0.82299
C          1.23059       -0.94749        3.12389
C          1.27521       -1.41121        1.85557
C          0.85190       -2.70369        1.39039
C          1.39699       -3.46474        0.33679
C          0.82037       -4.75981        0.26951
C         -0.16084       -4.90171        1.21797
S         -0.53857       -3.52358        2.03467
C         -0.63561       -6.22275        1.21331
C          0.02147       -6.92807        0.23672
C          0.94831       -6.02848       -0.45894
C          1.70281       -6.29592       -1.54172
C          1.69549       -7.57404       -2.16414
N          1.69711       -8.61580       -2.67927
C          2.52916       -5.30027       -2.13043
N          3.20288       -4.48118       -2.60081
C         -0.38665       -8.27954        0.22922
C         -1.31880       -8.54816        1.24130
S         -1.71982       -7.08887        2.11346
C         -1.96526       -9.83176        1.62865
C         -2.27953      -10.06047        2.97886
C         -2.88577      -11.24084        3.38243
C         -3.20227      -12.23545        2.44865
C         -2.86246      -12.04404        1.09569
C         -2.24799      -10.83356        0.67826
N         -1.95202      -10.65196       -0.63273
C         -2.21902      -11.64186       -1.51836
C         -2.78820      -12.83149       -1.10168
N         -3.12935      -13.01412        0.19248
C         -3.11841      -13.95885       -2.02794
C         -1.85436      -11.38032       -2.94572
C         -3.92923      -13.45404        2.88974
C         -3.86333      -14.76739        2.40611
C         -4.83681      -15.59256        3.00631
C         -5.53648      -14.90831        3.97420
S         -5.13771      -13.31375        4.14362
C         -6.45796      -15.78131        4.57762
C         -6.35891      -17.02114        3.99202
C         -5.35625      -16.96098        2.91762
C         -5.04788      -17.90218        1.99654
C         -5.72796      -19.15190        1.97639
N         -6.29359      -20.15874        1.94949
C         -4.05479      -17.66984        0.97407
N         -3.28661      -17.50941        0.12456
C         -7.23709      -17.94323        4.61130
C         -7.96117      -17.35530        5.65915
S         -7.59017      -15.64979        5.77524
C         -8.99202      -17.94034        6.46346
C         -9.29092      -17.61116        7.73112
C        -10.66564      -17.93259        8.23858
O        -11.40761      -18.82014        7.87843
C        -10.97110      -16.86118        9.21289
C         -9.85136      -16.02878        9.38814
C         -8.70919      -16.68270        8.70415
C         -7.43879      -16.69819        9.17519
C         -6.53163      -17.73658        8.80681
N         -5.81826      -18.62060        8.57311
C         -6.97129      -15.79911       10.17834
N         -6.62611      -15.03645       10.98422
C         -9.98157      -14.85889       10.11943
C        -11.21432      -14.58111       10.73574
C        -12.30198      -15.47275       10.61234
C        -12.18845      -16.62188        9.82432
Br       -13.96944      -15.18711       11.47600
Br       -11.32369      -12.96003       11.72427
H          3.90684        1.29704        5.65895
H          1.32556       -2.82829        6.83653
H          1.79781       -0.82218        1.10338
H          2.20975       -3.10228       -0.28295
H         -0.02527       -9.04871       -0.44246
H         -2.05914       -9.32021        3.74571
H         -3.11230      -11.36455        4.43955
H         -2.36182      -14.07865       -2.80797
H         -4.09432      -13.78660       -2.49064
H         -3.16206      -14.90242       -1.47318
H         -1.07187      -12.07225       -3.27154
H         -1.47443      -10.36078       -3.06856
H         -2.73179      -11.49169       -3.59004
H         -3.17181      -15.06299        1.62747
H         -7.35801      -18.98669        4.34196
H         -9.65460      -18.63136        5.93922
H         -9.16010      -14.15439       10.21860
H        -13.01941      -17.30610        9.67870
