87

C         -0.23938        1.51796       -3.10482
C         -1.58555        1.62660       -3.17624
C         -2.26944        1.69647       -4.42156
N         -2.81681        1.74646       -5.44381
C         -2.40350        1.54917       -2.00822
N         -3.06189        1.43785       -1.05679
C          0.70257        1.30579       -4.22264
C          1.77608        0.53607       -3.74178
C          2.84963        0.16740       -4.53048
C          2.90381        0.67803       -5.83411
C          1.87084        1.54237       -6.30811
C          0.75259        1.82625       -5.50328
C          2.00612        2.13818       -7.56917
C          3.12228        1.87680       -8.36437
C          4.10656        0.99809       -7.92030
C          3.99794        0.40023       -6.66410
C          1.68265        0.40614       -2.26902
O          2.42347       -0.20679       -1.53148
C          0.55375        1.31812       -1.89393
C          0.65369        2.05116       -0.77401
C         -0.04725        3.31581       -0.52857
N         -0.34300        4.09295       -1.58978
N         -0.95547        5.32404       -1.41438
C         -1.28368        5.77614       -0.18458
C         -0.97397        4.97723        0.91445
C         -0.33965        3.74378        0.74663
C         -1.96071        7.09219       -0.09905
C         -1.82790        7.99496        0.98322
C         -2.55300        9.24484        1.07113
N         -2.40282       10.00464        2.17945
C         -1.54761        9.62932        3.16246
C         -0.83860        8.46589        3.06252
N         -0.98114        7.65366        1.98225
C          0.06914        8.00694        4.07301
N          0.79594        7.61683        4.89423
C         -1.44901       10.50498        4.29089
N         -1.34025       11.17610        5.23186
C         -3.42983        9.70466        0.05701
C         -3.56266        8.83671       -1.06802
C         -2.83679        7.51802       -1.14071
N         -3.14786        6.83571       -2.25708
S         -4.17707        7.75116       -3.15476
N         -4.31190        9.05942       -2.16386
C         -4.17706       10.98410        0.11246
N         -3.61077       12.01554        0.77379
N         -4.26215       13.24644        0.90665
C         -5.47277       13.44863        0.35448
C         -6.03778       12.44424       -0.40400
C         -5.41385       11.19790       -0.48329
C         -6.03522       14.80310        0.50619
C         -7.32194       15.19128        0.58746
C         -7.90114       16.56189        0.59325
C         -7.34794       17.68664        1.11100
C         -8.03923       18.93074        1.16832
N         -8.60132       19.94560        1.21087
C         -6.05580       17.70165        1.71169
N         -5.00204       17.72656        2.19575
C         -9.30432       16.42886        0.08546
C         -9.62711       15.06793        0.05914
C         -8.49350       14.25619        0.50215
O         -8.55328       13.07166        0.75373
C        -10.84050       14.56307       -0.37836
C        -11.80777       15.46667       -0.81495
C        -11.52690       16.86162       -0.80162
C        -10.26474       17.33074       -0.35988
C        -12.52632       17.74701       -1.23627
C        -13.76554       17.27211       -1.67622
C        -14.02559       15.90498       -1.69657
C        -13.05100       15.00587       -1.26934
H          3.65688       -0.42707       -4.11254
H         -0.01697        2.50390       -5.86317
H          1.25306        2.83311       -7.93631
H          3.22390        2.36355       -9.33113
H          4.97031        0.78950       -8.54648
H          4.78909       -0.26851       -6.33120
H          1.41248        1.79862       -0.03514
H         -1.21375        5.28553        1.92572
H         -0.10050        3.13528        1.61211
H         -6.97193       12.58161       -0.93516
H         -5.93409       10.41788       -1.02824
H         -5.23527       15.53915        0.52159
H        -11.01224       13.49021       -0.38610
H        -10.07582       18.39948       -0.39498
H        -12.35362       18.82171       -1.23113
H        -14.53052       17.97224       -2.00339
H        -14.98860       15.53665       -2.04171
H        -13.27277       13.94049       -1.29183
