97

C         -0.35230        0.96795        0.80023
C         -1.60305        0.99593        1.30916
C         -1.87315        0.61325        2.65242
N         -2.08680        0.29831        3.74665
C         -2.73056        1.32520        0.49695
N         -3.64474        1.58255       -0.16854
C          0.87698        0.46230        1.43482
C          1.68861       -0.08327        0.42453
C          2.94724       -0.59661        0.67319
C          3.46933       -0.43445        1.96437
C          2.70332        0.23221        2.96946
C          1.38363        0.63966        2.70901
C          3.30302        0.52755        4.20057
C          4.62106        0.15049        4.45851
C          5.34609       -0.55509        3.50204
C          4.77386       -0.84890        2.26345
C          1.12769        0.26355       -0.90745
O          1.55837       -0.04677       -1.99592
C          0.02153        1.22759       -0.58506
C         -0.09485        2.34541       -1.32001
C         -0.60665        3.57368       -0.78968
C         -0.52122        4.10680        0.50651
C         -1.10806        5.38357        0.59201
C         -1.53175        5.81102       -0.64210
S         -1.36411        4.70902       -1.87165
C         -1.95664        7.14791       -0.52980
C         -1.81802        7.56394        0.77536
C         -1.33080        6.44349        1.57944
C         -1.19406        6.37195        2.91851
C         -1.51726        7.46935        3.76432
N         -1.78863        8.36005        4.45497
C         -0.77736        5.16806        3.55175
N         -0.44171        4.16405        4.02896
C         -2.15330        8.92845        0.92154
C         -2.54347        9.48441       -0.30205
S         -2.49186        8.30261       -1.58416
C         -2.94832       10.85355       -0.62067
N         -3.28314       11.12693       -1.89394
C         -3.62046       12.40853       -2.13805
C         -3.62819       13.39025       -1.16786
N         -3.29985       13.05988        0.09844
N         -2.94497       11.76366        0.37806
C         -3.99525       14.78416       -1.40584
C         -4.55021       15.70630       -0.51507
C         -4.78355       16.94463       -1.14814
C         -4.38331       16.92328       -2.46698
S         -3.73606       15.48771       -2.97769
C         -4.67654       18.16725       -3.05918
C         -5.28061       18.96139       -2.11605
C         -5.34688       18.25818       -0.83995
C         -5.78908       18.73014        0.34211
C         -6.29582       20.05270        0.48790
N         -6.73338       21.12046        0.61527
C         -5.77252       17.92925        1.51294
N         -5.76683       17.27178        2.47108
C         -5.69221       20.18333       -2.66428
C         -5.25926       20.34001       -3.98331
S         -4.50419       18.86783       -4.55543
C         -5.40748       21.43692       -4.89005
C         -5.48260       22.72797       -4.51974
C         -5.88377       23.90858       -5.32364
C         -5.59913       24.14911       -6.62693
C         -5.93251       25.37363       -7.27188
N         -6.20656       26.37202       -7.79567
C         -4.88371       23.21824       -7.43350
N         -4.31011       22.44946       -8.08937
C         -6.50347       24.86938       -4.35888
C         -6.19835       24.43969       -3.06131
C         -5.39047       23.22297       -3.10485
O         -4.74050       22.78701       -2.17860
C         -6.64719       25.05783       -1.90720
C         -7.44362       26.19335       -2.04638
C         -7.76503       26.67604       -3.34750
C         -7.30094       25.99643       -4.49879
C         -8.55203       27.83181       -3.45715
C         -9.01753       28.49282       -2.31757
C         -8.71347       28.00440       -1.04998
C         -7.93183       26.85881       -0.91405
H          3.54188       -1.00741       -0.13777
H          0.81583        1.16984        3.47047
H          2.75899        1.08418        4.96201
H          5.08256        0.41164        5.40767
H          6.36814       -0.85996        3.71261
H          5.36910       -1.38095        1.52406
H          0.36798        2.38411       -2.30674
H         -0.01778        3.60438        1.32207
H         -2.10982        9.51207        1.83514
H         -3.89983       12.60717       -3.16692
H         -4.78165       15.45071        0.51340
H         -6.24328       20.94367       -2.12881
H         -5.53356       21.15625       -5.93224
H         -6.39219       24.64643       -0.93360
H         -7.59814       26.36935       -5.47400
H         -8.80697       28.23616       -4.43483
H         -9.62019       29.39179       -2.42059
H         -9.08165       28.51677       -0.16460
H         -7.70540       26.49113        0.08533
