92

C         -2.99109       -1.38474        0.38190
C         -3.20693       -2.48745        1.14665
C         -2.39026       -3.65558        1.06995
N         -1.73291       -4.60625        1.01346
C         -4.22096       -2.53258        2.14208
N         -5.04472       -2.56832        2.95705
C         -1.86424       -1.18400       -0.57388
C         -1.72535        0.18624       -0.80902
C         -0.77027        0.73516       -1.65797
C          0.07716       -0.15377       -2.35635
C         -0.07223       -1.53323       -2.14546
C         -1.03410       -2.07000       -1.25284
S          1.03749       -2.43543       -3.11565
C          1.67492       -1.03311       -3.80413
C          1.10562        0.11589       -3.32418
Br         3.02201       -1.05209       -5.10568
C         -2.77582        0.94441       -0.11283
O         -2.83706        2.15359       -0.03964
C         -3.70387       -0.08786        0.46622
C         -4.98365        0.18075        0.78429
C         -5.63176        1.50587        0.66360
C         -5.59515        2.36379        1.75937
C         -6.20719        3.61420        1.68517
C         -6.81397        4.07812        0.50198
C         -6.84734        3.19284       -0.61421
C         -6.29253        1.88468       -0.51081
N         -6.42455        0.97822       -1.51363
C         -7.10879        1.34189       -2.62408
C         -7.59094        2.63086       -2.76883
N         -7.43658        3.54206       -1.78186
C         -8.39267        3.08182       -3.94978
C         -7.39488        0.26304       -3.62274
C         -7.46002        5.45206        0.49615
S         -8.87137        5.71657       -0.49445
C         -9.05878        7.37932       -0.09773
C         -8.20363        7.67808        0.94549
C         -7.22319        6.62303        1.21627
C         -6.18071        6.80525        2.14563
C         -6.23375        8.04578        2.81410
F         -5.29166        8.29669        3.73785
C         -7.21980        9.03536        2.58084
F         -7.16883       10.17556        3.28886
C         -8.24537        8.89990        1.63768
C        -10.03104        8.13701       -0.83297
C         -9.88113        9.45107       -1.05983
C        -10.82968       10.28723       -1.77016
C        -11.47252       11.33176       -1.22389
C        -12.28902       12.28009       -1.94449
C        -12.71622       13.30920       -1.19428
C        -12.28386       13.24457        0.19230
S        -11.40177       11.73816        0.46894
C        -12.43195       14.18467        1.14641
C        -13.01557       15.50744        1.00814
C        -12.77825       16.31350        2.05699
C        -11.99713       15.68498        3.10266
S        -11.81205       13.98132        2.78506
C        -11.44165       16.32615        4.14368
C        -10.60080       15.67625        5.07811
S        -11.12589       14.97575        6.57277
C         -9.52375       14.44178        7.01253
C         -8.68159       14.81975        6.02785
C         -9.26806       15.48543        4.97541
O         -8.45143       15.87363        3.95417
C         -7.24965       15.38519        4.43664
N         -6.11266       15.60221        3.58941
O         -5.02033       15.22083        4.03176
O         -6.29842       16.15478        2.49829
C         -7.32056       14.75762        5.68777
H         -0.71445        1.80989       -1.80618
H         -1.11290       -3.14738       -1.15953
H          1.38482        1.11040       -3.65109
H         -5.68457       -0.59913        1.06830
H         -5.10609        2.06132        2.68299
H         -6.21228        4.20623        2.59421
H         -7.95256        2.73823       -4.88968
H         -8.43006        4.17606       -3.99051
H         -9.41857        2.70923       -3.87003
H         -7.15550        0.58550       -4.63984
H         -8.45317       -0.01439       -3.57206
H         -6.80030       -0.63123       -3.41013
H         -5.38148        6.11461        2.36751
H         -8.98022        9.68260        1.50823
H        -10.88949        7.61343       -1.24786
H         -9.00789        9.99071       -0.69774
H        -10.92613       10.08222       -2.83297
H        -12.49515       12.17802       -3.00111
H        -13.31293       14.11966       -1.58873
H        -13.54548       15.83249        0.12359
H        -13.09431       17.34697        2.10878
H        -11.57541       17.39696        4.25999
H         -9.34096       13.90655        7.93405
H         -6.49484       14.32459        6.23549
