104

C        -10.31117       -1.19428        0.51362
C        -10.38635       -1.03245        1.86081
C        -11.42005       -1.59813        2.66762
N        -12.25752       -2.03498        3.34130
C         -9.48254       -0.22559        2.60645
N         -8.77564        0.46065        3.22093
C        -11.31167       -1.93754       -0.32317
C        -11.01755       -1.72564       -1.67022
C        -11.81108       -2.17933       -2.72262
C        -12.97979       -2.90890       -2.40715
C        -13.24525       -3.18992       -1.06024
C        -12.41543       -2.72674       -0.00707
S        -14.68080       -4.13704       -0.88941
C        -14.97000       -4.11163       -2.55138
C        -14.00788       -3.44207       -3.26015
Br       -16.46189       -4.92355       -3.34179
C         -9.76593       -0.97161       -1.82310
O         -9.19898       -0.78532       -2.87994
C         -9.32839       -0.58260       -0.43681
C         -8.24297        0.17787       -0.20976
C         -7.44600        0.80197       -1.21153
O         -7.68924        2.08794       -1.70689
C         -6.26075        0.41847       -1.77529
C         -5.34075       -0.67471       -1.81900
O         -5.47112       -1.78256       -1.33094
N         -4.27426       -0.18796       -2.54751
C         -4.43863        1.10790       -2.99277
O         -3.64070        1.77713       -3.62362
C         -5.72901        1.48756       -2.50062
C         -6.62428        2.52598       -2.51064
C         -6.61061        3.79008       -3.16835
C         -5.47276        4.44877       -3.44227
C         -5.48108        5.68748       -4.15156
S         -5.63063        7.14067       -3.27698
C         -5.36829        5.93471       -5.51540
C         -5.34571        4.84331       -6.56669
C         -6.75836        4.48007       -7.04934
N         -6.73422        3.46407       -8.10112
C         -5.25285        7.36451       -5.79806
C         -5.05427        7.95554       -7.18433
C         -6.37963        8.29269       -7.88199
N         -6.17181        8.87997       -9.20527
C         -5.32102        8.14144       -4.63826
C         -5.28911        9.57727       -4.55624
C         -4.86080       10.35416       -3.54806
C         -5.02479       11.79782       -3.54251
C         -4.98189       12.32495       -2.30752
C         -4.78044       11.31618       -1.28065
S         -4.14946        9.85681       -2.03795
C         -5.19325       11.36679       -0.00053
C         -5.93736       12.44384        0.62495
C         -6.58292       12.06619        1.74081
C         -6.36489       10.67502        2.09059
S         -5.10621        9.99087        1.09724
C         -7.10096        9.98104        2.97567
C         -6.96403        8.55562        3.26056
C         -7.94352        7.72061        3.64065
C         -9.37538        7.95043        3.81613
C         -9.96405        8.79969        4.69098
C        -11.37666        8.87323        4.85027
N        -12.52936        8.94275        4.95566
C         -9.19434        9.57564        5.59871
N         -8.56459       10.20217        6.35602
C        -10.04765        6.82623        3.12823
C         -9.13892        5.76379        3.04879
C         -7.78427        6.23691        3.42982
O         -6.76505        5.57999        3.47109
C         -9.48116        4.51217        2.55425
C        -10.78277        4.35989        2.00965
C        -11.64270        5.47137        1.97848
C        -11.30523        6.71336        2.55921
S        -13.10842        5.11133        1.13932
C        -12.65539        3.50355        0.91476
C        -11.42072        3.20911        1.42856
Br       -13.73640        2.24963        0.03826
H        -11.54281       -1.95804       -3.75228
H        -12.68983       -3.00028        1.00390
H        -14.02620       -3.32447       -4.33695
H         -7.90415        0.40985        0.79023
H         -3.44329       -0.72086       -2.73503
H         -7.57100        4.20979       -3.45529
H         -4.50007        4.07720       -3.12977
H         -4.85168        3.94885       -6.16661
H         -4.73418        5.16065       -7.41856
H         -7.27016        5.36496       -7.43656
H         -7.36328        4.11179       -6.21403
H         -6.18778        3.80273       -8.89268
H         -7.68162        3.32407       -8.45119
H         -4.46434        7.27113       -7.80342
H         -4.44348        8.86486       -7.10432
H         -6.97045        8.98605       -7.27338
H         -6.98075        7.38986       -8.00573
H         -5.68617        9.77185       -9.11963
H         -7.07786        9.09018       -9.62469
H         -5.69718       10.09062       -5.42338
H         -5.22177       12.36994       -4.43841
H         -5.13640       13.37229       -2.09323
H         -6.01809       13.43282        0.19583
H         -7.23701       12.71779        2.30444
H         -7.90823       10.51609        3.46281
H         -6.00273        8.10777        2.99973
H         -8.76071        3.69824        2.54702
H        -12.00488        7.54193        2.51226
H        -10.96773        2.22993        1.37867
