91

C          1.11632        1.60706        1.36064
C          1.42660        1.79987        0.05990
C          2.77082        1.78485       -0.40839
N          3.87278        1.77910       -0.77177
C          0.40687        1.91355       -0.93206
N         -0.42619        1.96357       -1.73705
C          2.02964        1.20465        2.45027
C          1.28931        0.44574        3.36941
C          1.83409       -0.06757        4.53369
C          3.16596        0.25871        4.82710
C          3.91253        1.08822        3.93869
C          3.33890        1.54184        2.73655
C          5.21236        1.47415        4.29226
C          5.78306        1.04464        5.49102
C          5.06467        0.20952        6.34406
C          3.76869       -0.18017        6.01616
C         -0.15402        0.47646        3.01389
O         -1.06443       -0.09709        3.57251
C         -0.23296        1.50040        1.91660
C         -1.26446        2.35963        1.97683
C         -1.23826        3.74350        1.57923
S          0.22002        4.68239        1.67499
C         -0.53920        6.19399        1.34944
C         -1.90217        5.99880        1.23281
C         -2.29049        4.59744        1.28991
C         -3.61842        4.15960        1.17006
C         -4.52694        5.22348        1.01107
F         -5.82712        4.92407        0.89084
C         -4.15042        6.59457        0.99484
F         -5.11369        7.52344        0.87634
C         -2.82737        7.04637        1.11013
C          0.29630        7.35502        1.30987
C          0.02006        8.40953        0.53379
C          0.79514        9.62873        0.52053
C          0.30552       10.85566        0.24230
C         -1.15000       11.17726        0.00959
C          1.21214       12.06331        0.23392
N          1.71874       12.26098       -1.10429
C          1.14891       12.99521       -2.11296
C          1.64321       13.10971       -3.35151
C          1.03082       13.88989       -4.41148
C          1.50607       14.02255       -5.66091
C          0.84974       14.75532       -6.72126
C          1.40464       14.57105       -7.92876
C          2.52830       13.65345       -7.91411
S          2.97720       13.29393       -6.24668
C          3.07725       13.03449       -8.97465
C          2.68115       13.14481      -10.36444
C          3.10253       12.11687      -11.12090
C          3.88426       11.13649      -10.38546
S          4.29566       11.78661       -8.81861
C          4.16164        9.89557      -10.82900
C          4.84781        8.87383      -10.10761
S          6.15128        9.07974       -8.96577
C          6.28438        7.39507       -8.60304
C          5.43815        6.74512       -9.42391
C          4.66809        7.53836      -10.24735
O          3.84230        6.88825      -11.12269
C          4.19077        5.58536      -10.81198
N          3.65157        4.59387      -11.67705
O          4.47317        3.94029      -12.33483
O          2.42518        4.44249      -11.66925
C          5.11431        5.43055       -9.77592
H          1.21889       -0.64122        5.22079
H          3.90767        2.19842        2.08332
H          5.79212        2.12942        3.64501
H          6.78733        1.36172        5.75865
H          5.51617       -0.13346        7.27294
H          3.22232       -0.82332        6.70458
H         -2.13958        2.06005        2.55655
H         -3.95798        3.13255        1.19701
H         -2.60830        8.10413        1.13021
H          1.18164        7.37175        1.94938
H         -0.82713        8.38440       -0.14817
H          1.85618        9.51923        0.74207
H         -1.81066       10.31089        0.08870
H         -1.29793       11.61292       -0.98229
H         -1.49388       11.89957        0.75901
H          2.06189       11.90822        0.90935
H          0.69192       12.95596        0.60025
H          2.50815       11.67843       -1.36854
H          0.23081       13.50246       -1.82466
H          2.56503       12.58139       -3.58166
H          0.09271       14.37750       -4.15636
H         -0.02825       15.36290       -6.54913
H          1.01985       15.01610       -8.83545
H          2.06599       13.95046      -10.73870
H          2.85820       12.00411      -12.16863
H          3.76433        9.60639      -11.80149
H          6.99661        7.02777       -7.87839
H          5.52160        4.50144       -9.40353
