86

C          1.14905       -0.41142        3.35492
S          1.15183       -1.39386        1.94971
C          0.88878       -1.17831        4.44260
S          0.73019       -0.84452        6.20338
C          0.49597       -2.62059        6.29933
N          0.51287       -3.38684        5.19921
C          0.73209       -2.53520        4.14849
C          0.91220       -2.87811        2.83353
C          0.92915       -4.16819        2.21810
C          1.56244       -4.39594        1.05581
C          1.69040       -5.70721        0.52670
O          2.75687       -6.49981        0.88973
C          2.65385       -7.68423        0.25099
C          1.51984       -7.71040       -0.52380
N          1.13021       -8.83855       -1.30844
O          1.86680       -9.83577       -1.26983
O          0.08315       -8.73372       -1.96343
C          0.91669       -6.41661       -0.40207
N         -0.20345       -5.98919       -1.06516
C         -0.54338       -4.69601       -1.41664
C         -1.63253       -4.21950       -2.05364
C         -2.79754       -5.07715       -2.46302
C         -1.76292       -2.72812       -2.32008
N         -2.35974       -2.47712       -3.62014
C         -3.47147       -1.70944       -3.87726
C         -4.03700       -1.49605       -5.07357
C         -5.26466       -0.74143       -5.26034
C         -6.36190       -1.19265       -5.89261
C         -7.58347       -0.44039       -6.06855
C         -8.56930       -1.13312       -6.66081
C         -8.20369       -2.49457       -7.02306
S         -6.52314       -2.79687       -6.56761
C         -8.98612       -3.41056       -7.63097
C        -10.37981       -3.25230       -8.00890
C        -10.88780       -4.30040       -8.67478
C         -9.93144       -5.36109       -8.90907
S         -8.41740       -5.01445       -8.12009
C        -10.17563       -6.42323       -9.69270
C         -9.24407       -7.43783      -10.14251
C         -8.49530       -8.32393       -9.47280
C         -7.44891       -9.06456      -10.27228
O         -7.37946       -9.18990      -11.47756
C         -6.47637       -9.57060       -9.28966
C         -5.25285      -10.17091       -9.55607
C         -4.41584      -10.47612       -8.46932
C         -4.84295      -10.15764       -7.14742
C         -4.03262      -10.47560       -6.05449
C         -2.80798      -11.09218       -6.25864
C         -2.35501      -11.37742       -7.53976
C         -3.15510      -11.07172       -8.64490
F         -2.05476      -11.41600       -5.20039
C         -6.07529       -9.53028       -6.92625
C         -6.91788       -9.27527       -7.99488
C         -8.27983       -8.68202       -8.06563
C         -9.18742       -8.73498       -7.06128
C        -10.54126       -8.32761       -7.22461
N        -11.66110       -8.02610       -7.31857
C         -8.90464       -9.33333       -5.79229
N         -8.67103       -9.84163       -4.77669
H          1.33249        0.65329        3.32584
H          0.34924       -3.04335        7.28517
H          0.47367       -4.98860        2.77149
H          2.07335       -3.61383        0.50706
H          3.45216       -8.38930        0.44078
H         -0.78696       -6.69410       -1.52382
H          0.22192       -3.97857       -1.13215
H         -2.70449       -6.11258       -2.12522
H         -2.89325       -5.09971       -3.55323
H         -3.72487       -4.68045       -2.03687
H         -0.77767       -2.24601       -2.30378
H         -2.35951       -2.27188       -1.52159
H         -1.95568       -2.97489       -4.40831
H         -3.92037       -1.28730       -2.97929
H         -3.59553       -1.92861       -5.96806
H         -5.26428        0.26092       -4.83636
H         -7.68260        0.58860       -5.74903
H         -9.54134       -0.70744       -6.86846
H        -10.96135       -2.36940       -7.78193
H        -11.90474       -4.34399       -9.04346
H        -11.15160       -6.49306      -10.17527
H         -9.14883       -7.42326      -11.23266
H         -4.95936      -10.37989      -10.58178
H         -4.34665      -10.26173       -5.03605
H         -1.38009      -11.83697       -7.66713
H         -2.78272      -11.29927       -9.64169
H         -6.33727       -9.23983       -5.91407
