96

C         -9.58749        1.37145        5.53855
C         -8.95438        0.29442        6.05969
C         -9.43989       -0.40794        7.20651
N         -9.83885       -0.97097        8.12925
C         -7.77707       -0.24957        5.46141
N         -6.80644       -0.66603        4.98306
C        -10.87039        1.98612        6.02014
C        -11.36545        2.79622        4.99280
C        -12.46602        3.63110        5.10746
C        -13.14529        3.64733        6.34134
C        -12.70255        2.79670        7.36765
C        -11.55858        1.95894        7.23107
S        -13.71965        2.94492        8.76099
C        -14.65524        4.14978        8.03499
C        -14.25874        4.45107        6.76089
Br       -16.09359        4.99548        8.88734
C        -10.50128        2.73468        3.81118
O        -10.79162        3.09343        2.68808
C         -9.23736        2.10054        4.29115
C         -8.04444        2.43397        3.76963
C         -7.89233        3.44418        2.76602
C         -7.94272        3.41068        1.37038
C         -8.28031        2.22715        0.59967
O         -8.06623        1.08975        0.99584
O         -8.90020        2.43387       -0.59432
C         -7.51211        4.71967        0.95679
N         -7.39743        5.52037        2.02091
O         -7.62847        4.74310        3.12231
C         -7.14497        5.12125       -0.38092
C         -7.26200        6.35658       -0.94366
O         -6.84475        6.61965       -2.26435
C         -6.29414        5.57761       -2.92997
C         -6.16179        4.30785       -2.34289
C         -5.59425        3.37495       -3.17002
S         -5.18449        4.08168       -4.68359
C         -5.79529        5.62372       -4.20732
O         -6.56904        4.05250       -1.08544
C         -7.83554        7.53827       -0.32195
C         -9.11212        7.61331        0.09510
C         -9.75170        8.86203        0.64228
C         -9.54470        8.98995        2.14185
O         -8.47967        9.19911        2.69940
O        -10.73230        8.85038        2.80572
C        -11.80263        8.58813        1.88750
C        -11.27262        9.03271        0.53910
C        -12.02576        8.45252       -0.65180
C        -12.42161        6.98387       -0.53296
C        -13.02608        6.58534        0.80724
C        -12.22636        7.11333        1.98670
O        -13.12779        6.96432        3.09369
C        -14.42075        7.00102        2.64671
O        -15.38659        6.99675        3.39216
C        -14.45243        7.05375        1.11622
C        -15.53792        6.14030        0.58467
C        -15.94300        5.86699       -0.66667
C        -15.55738        6.32000       -2.00582
C        -15.43044        7.59642       -2.44021
C        -15.12428        7.92222       -3.79265
N        -14.84021        8.18269       -4.88681
C        -15.63384        8.71460       -1.58371
N        -15.75980        9.63919       -0.89455
C        -15.61910        5.11641       -2.88273
C        -16.38578        4.14543       -2.23221
C        -16.71181        4.58434       -0.86349
O        -17.37467        3.97424       -0.05253
C        -16.68393        2.90329       -2.77742
C        -16.15204        2.60330       -4.05281
C        -15.33728        3.55548       -4.68672
C        -15.05104        4.81987       -4.11482
S        -14.75658        2.96768       -6.20422
C        -15.58487        1.50852       -6.02823
C        -16.28774        1.41931       -4.85661
Br       -15.53795        0.14453       -7.31091
H        -12.75676        4.28136        4.28829
H        -11.24776        1.36230        8.08245
H        -14.73004        5.20625        6.14056
H         -7.11385        2.09319        4.21307
H         -9.12040        3.35810       -0.79941
H         -5.39477        2.33076       -2.96973
H         -5.74440        6.46081       -4.88898
H         -7.17054        8.39875       -0.23673
H         -9.71574        6.72314        0.00332
H         -9.29143        9.73305        0.15801
H        -12.63718        9.23467        2.18705
H        -11.42758       10.12292        0.49085
H        -11.46024        8.61397       -1.57663
H        -12.94583        9.03683       -0.76535
H        -11.54906        6.35124       -0.70909
H        -13.08948        6.72796       -1.35342
H        -13.01930        5.48569        0.85904
H        -11.35740        6.47364        2.17888
H        -14.62192        8.09873        0.85722
H        -15.99933        5.52660        1.36904
H        -17.28193        2.18272       -2.22571
H        -14.39093        5.49958       -4.64288
H        -16.87427        0.55468       -4.56931
