86

C         -3.14681        2.03995       -2.57690
C         -3.25709        2.98763       -3.55085
C         -2.16574        3.79005       -3.97210
N         -1.29368        4.49376       -4.30501
C         -4.46983        3.28304       -4.21423
N         -5.45927        3.54343       -4.76118
C         -1.87063        1.63300       -1.89995
C         -2.16857        0.69391       -0.91347
C         -1.21994        0.05770       -0.11630
C          0.13899        0.35144       -0.35021
C          0.45730        1.30465       -1.32696
C         -0.53259        1.96469       -2.10219
S          2.16809        1.52206       -1.44704
C          2.46399        0.33736       -0.28197
C          1.32239       -0.20447        0.24434
Br         4.18678       -0.18942        0.23029
C         -3.60871        0.42807       -0.85391
O         -4.11911       -0.30724       -0.03622
C         -4.24127        1.24465       -1.94949
C         -5.56791        1.21102       -2.17656
C         -6.55371        0.40366       -1.47289
C         -7.61430        0.89380       -0.77612
O         -8.52259        0.03796       -0.13113
C         -8.25821       -1.27908       -0.20611
C         -7.16782       -1.78294       -0.93706
C         -7.06206       -3.14763       -0.86508
S         -8.32896       -3.80962        0.09919
C         -8.99909       -2.25520        0.41019
O         -6.32249       -0.97455       -1.61408
C         -7.94431        2.30421       -0.59760
C         -9.02442        2.73032        0.08064
C         -9.37339        4.11597        0.29233
C        -10.62318        4.58392        0.50102
C        -11.87599        3.75482        0.36119
C        -10.87695        6.04269        0.80961
N        -10.27945        6.39899        2.08218
C         -9.05796        6.98972        2.26269
C         -8.52894        7.45684        3.39875
C         -7.21381        8.07387        3.42131
C         -6.37413        8.16203        4.46149
C         -5.10467        8.84120        4.40304
C         -4.45519        8.87436        5.57618
C         -5.18522        8.23530        6.65884
S         -6.63557        7.44788        6.02795
C         -4.90263        8.32045        7.97178
C         -3.82508        9.08131        8.58258
C         -4.00978        9.30868        9.89206
C         -5.23079        8.72615       10.40595
S         -5.93318        7.64322        9.23036
C         -5.77868        9.02815       11.59303
C         -7.01609        8.49331       12.01728
S         -8.56181        9.23179       11.73599
C         -9.43720        7.95834       12.54626
C         -8.53385        7.06171       12.99528
C         -7.21968        7.35828       12.71331
O         -6.27212        6.49505       13.17424
C         -7.09835        5.58846       13.81138
N         -6.42615        4.52279       14.49554
O         -7.14682        3.73561       15.12523
O         -5.19137        4.47957       14.43331
C         -8.47047        5.86431       13.72380
H         -1.52408       -0.67012        0.63194
H         -0.19603        2.67650       -2.84510
H          1.31335       -0.97970        1.00126
H         -6.03710        1.80985       -2.94735
H         -6.31551       -3.78844       -1.30960
H         -9.87962       -2.13794        1.02611
H         -7.28886        3.03670       -1.06027
H         -9.68422        2.00475        0.55111
H         -8.53683        4.81087        0.32607
H        -11.68754        2.69021        0.20356
H        -12.45209        4.10446       -0.50374
H        -12.50214        3.84684        1.25361
H        -11.95466        6.23700        0.87635
H        -10.50239        6.67926       -0.00167
H        -10.82906        6.21033        2.91477
H         -8.47775        7.03981        1.34297
H         -9.09351        7.41435        4.32968
H         -6.91064        8.51740        2.47379
H         -4.73833        9.30486        3.50088
H         -3.50531        9.36874        5.70986
H         -2.98539        9.47606        8.02679
H         -3.34360        9.90431       10.50381
H         -5.29490        9.74249       12.25054
H        -10.51454        7.98562       12.63304
H         -9.27009        5.28344       14.15983
