89

C        -18.22148       -7.75996       -5.04993
C        -17.22508       -8.05618       -5.92673
C        -17.08885       -9.34622       -6.52276
N        -16.99410      -10.38639       -7.02732
C        -16.28278       -7.09878       -6.39580
N        -15.53259       -6.31102       -6.78245
C        -19.32522       -8.67657       -4.64663
C        -20.39272       -7.90529       -4.18150
C        -21.61894       -8.43492       -3.79698
C        -21.78690       -9.83523       -3.88459
C        -20.69723      -10.62037       -4.29165
C        -19.44654      -10.06102       -4.65165
S        -21.10602      -12.29920       -4.29795
C        -22.69444      -11.97813       -3.82858
C        -22.94190      -10.64789       -3.61927
Br       -23.98870      -13.31513       -3.61623
C        -20.02835       -6.48136       -4.13639
O        -20.77440       -5.57622       -3.82608
C        -18.58190       -6.41718       -4.54334
C        -17.81896       -5.33659       -4.32375
C        -18.26607       -4.05307       -3.81502
C        -17.81824       -3.47351       -2.69272
C        -18.10266       -2.11556       -2.29364
C        -17.31732       -1.67869       -1.29601
C        -16.38937       -2.68443       -0.80368
S        -16.75459       -4.24425       -1.55041
C        -15.31799       -2.49285       -0.01119
C        -14.76504       -1.22923        0.43644
C        -13.48140       -1.32398        0.82509
C        -12.94603       -2.67278        0.72882
S        -14.25609       -3.79842        0.49332
C        -11.63808       -2.97737        0.77550
C        -11.07291       -4.27794        0.55681
C        -11.49602       -5.33329       -0.23240
C        -10.64586       -6.48252       -0.20365
C         -9.53361       -6.26064        0.59639
S         -9.56575       -4.68507        1.28785
C         -8.56378       -7.25551        0.74978
C         -8.68975       -8.49830        0.10182
C         -9.79724       -8.71032       -0.70709
C        -10.76841       -7.72153       -0.85141
S         -9.76134      -10.26266       -1.43928
C         -8.22012      -10.65131       -0.77024
C         -7.84222       -9.65273        0.11232
C         -7.57551      -11.85512       -1.21150
C         -6.24415      -12.03421       -1.28834
C         -5.61008      -13.15340       -1.95573
C         -4.31164      -12.94297       -2.23493
C         -3.82564      -11.65261       -1.77964
S         -5.02994      -10.91291       -0.74605
C         -2.69161      -11.01387       -2.12688
C         -1.69647      -11.45805       -3.08087
C         -0.79349      -10.51299       -3.39935
C         -1.00303       -9.25547       -2.71320
S         -2.28344       -9.40229       -1.54014
C         -0.33466       -8.11942       -2.96870
C         -0.63322       -6.89988       -2.31778
S         -1.74047       -5.70903       -2.92015
C         -1.54442       -4.66662       -1.53575
C         -0.64244       -5.24335       -0.71343
C         -0.15789       -6.46352       -1.13400
O          0.72275       -7.09992       -0.31026
C          0.76626       -6.17148        0.70978
N          1.60357       -6.53206        1.80343
O          2.44291       -5.69205        2.15304
O          1.39443       -7.62883        2.33531
C         -0.00628       -5.02156        0.51902
H        -22.41989       -7.78466       -3.45600
H        -18.63806      -10.72810       -4.93102
H        -23.90135      -10.25379       -3.30672
H        -16.74648       -5.36080       -4.50872
H        -18.95033       -3.51010       -4.46600
H        -18.83607       -1.50191       -2.79925
H        -17.36052       -0.67421       -0.90052
H        -15.30530       -0.29411        0.38543
H        -12.87918       -0.47776        1.12524
H        -10.93018       -2.16997        0.95239
H        -12.39473       -5.31086       -0.83532
H         -7.68843       -7.06639        1.36726
H        -11.63470       -7.90580       -1.48271
H         -6.94016       -9.68607        0.70787
H         -8.21716      -12.62316       -1.63903
H         -6.15387      -14.03952       -2.25329
H         -3.69443      -13.64864       -2.77199
H         -1.70772      -12.44124       -3.52886
H         -0.00720      -10.65567       -4.12539
H          0.43971       -8.10116       -3.72967
H         -2.10118       -3.74432       -1.44382
H         -0.09741       -4.18573        1.19918
