113

C         -2.79561        0.17585       -2.77150
C         -1.86148        0.73359       -3.58429
C         -0.88892       -0.03559       -4.29471
N         -0.09389       -0.66375       -4.87574
C         -1.74540        2.14648       -3.73633
N         -1.66938        3.30189       -3.85517
C         -2.92127       -1.27841       -2.44869
C         -3.64216       -1.39165       -1.25748
C         -4.04282       -2.59901       -0.69986
C         -3.70685       -3.78207       -1.39311
C         -2.96198       -3.68177       -2.57927
C         -2.55506       -2.43634       -3.12588
S         -2.65704       -5.24590       -3.25109
C         -3.53145       -6.01374       -2.02869
C         -4.04392       -5.14805       -1.10078
Br        -3.78215       -7.86876       -1.95467
C         -4.04066       -0.06433       -0.76638
O         -4.48273        0.18221        0.33687
C         -3.78016        0.87054       -1.91227
C         -4.50973        1.96848       -2.18638
C         -5.62956        2.44984       -1.42955
S         -5.81022        4.15352       -1.27921
C         -7.30976        4.05604       -0.41497
C         -7.50381        2.73230       -0.03424
C         -6.72392        1.82707       -0.84284
C         -7.09807        0.42114       -0.97666
O         -6.63013       -0.32524       -1.83191
C         -8.19064       -0.06331       -0.09130
C         -8.60746       -1.39930       -0.20088
C         -9.66638       -1.87610        0.57746
C        -10.31402       -1.03252        1.48781
C        -11.46231       -1.53818        2.32715
C        -12.81337       -1.33909        1.65539
C         -9.88942        0.29970        1.60096
C         -8.83427        0.79017        0.81442
C         -8.46919        2.22978        0.93354
O         -8.97697        2.92604        1.80374
C         -8.11034        5.31577       -0.22074
C         -7.41199        6.51700       -0.02896
C         -8.07384        7.73646        0.07773
C         -9.47623        7.82071        0.04325
C        -10.22489        6.64589       -0.14707
C         -9.54778        5.39425       -0.31576
C        -10.39289        4.29396       -0.60443
C        -11.77464        4.41641       -0.69598
C        -12.31537        5.65623       -0.48575
N        -11.57704        6.73509       -0.17585
C        -10.12903        9.13804        0.31364
S         -9.42817       10.11465        1.53996
C        -10.65813       11.30337        1.52566
C        -11.68051       10.83920        0.70192
C        -11.27113        9.76343       -0.17094
C        -12.07206        9.40130       -1.34223
O        -11.66242        8.70340       -2.26380
C        -13.40559       10.07437       -1.46372
C        -14.21339        9.81113       -2.57970
C        -15.42805       10.49031       -2.75820
C        -15.87210       11.42756       -1.81692
C        -17.16483       12.18263       -2.01462
C        -16.99095       13.49099       -2.77589
C        -15.08248       11.66533       -0.68773
C        -13.85112       11.00705       -0.51832
C        -13.03276       11.37339        0.65813
O        -13.51981       12.05090        1.55603
C        -10.63602       12.48289        2.35509
C         -9.68312       12.86279        3.22202
C         -8.40666       12.28501        3.62318
C         -7.26908       12.23164        2.89063
C         -6.05123       11.72027        3.42300
N         -5.07776       11.27701        3.87268
C         -7.20045       12.80383        1.58474
N         -7.11566       13.31746        0.54767
C         -8.46529       12.18028        5.09386
C         -9.37463       13.14719        5.53983
C        -10.10955       13.71894        4.38354
O        -10.91525       14.62272        4.39972
C         -9.59397       13.41347        6.88121
C         -8.89562       12.61853        7.82399
C         -8.06065       11.58453        7.36353
C         -7.83283       11.33965        5.99217
S         -7.37713       10.69697        8.67674
C         -8.11475       11.69714        9.81597
C         -8.89579       12.67500        9.26024
Br        -7.88571       11.48024       11.66165
H         -4.64791       -2.61861        0.20182
H         -2.02279       -2.42833       -4.07063
H         -4.64117       -5.45645       -0.25106
H         -4.29453        2.54337       -3.08333
H         -8.11806       -2.07477       -0.90177
H         -9.98269       -2.91253        0.46771
H        -11.45706       -1.02454        3.29624
H        -11.31520       -2.60214        2.54846
H        -13.00311       -0.28201        1.44063
H        -13.61436       -1.69892        2.31000
H        -12.87550       -1.89145        0.71182
H        -10.39204        0.96576        2.30249
H         -6.32502        6.53906        0.02527
H         -7.46275        8.62717        0.20935
H         -9.98991        3.30751       -0.78486
H        -12.40238        3.56573       -0.93175
H        -13.38198        5.83309       -0.58220
H        -13.89234        9.09056       -3.33097
H        -16.02534       10.28430       -3.64512
H        -17.61795       12.39274       -1.03767
H        -17.87883       11.54449       -2.54765
H        -16.36280       14.19863       -2.22389
H        -17.96717       13.96366       -2.93196
H        -16.53507       13.32957       -3.75822
H        -15.41690       12.38343        0.06167
H        -11.55737       13.06856        2.36850
H        -10.28944       14.18914        7.18883
H         -7.19272       10.52058        5.67977
H         -9.44921       13.40581        9.83703
