59

C          0.85985        2.47734       -0.39926
S          1.73687        1.07133        0.01006
C          1.45259        0.30780       -1.52907
C          0.69161        1.16661       -2.31007
C          0.36587        2.37966       -1.66650
S         -0.59223        3.54883       -2.54485
C         -0.74720        2.58687       -4.02248
S         -1.57970        3.11548       -5.36983
S          0.05803        1.01414       -3.94836
C          1.98656       -1.01892       -1.79827
S          1.78268       -1.80462       -3.32691
C          2.71176       -1.87479       -1.00388
N          3.13458       -1.66479        0.28613
C          3.81164       -2.75800        0.65485
S          4.03703       -4.12645       -0.46171
C          3.04947       -3.10252       -1.58989
C          2.56087       -3.24815       -2.85034
C          2.65182       -4.36251       -3.71273
C          2.54322       -5.61629       -3.25318
C          2.60056       -6.75346       -4.09913
S          2.54509       -8.31492       -3.36178
C          2.69437       -6.94102       -5.45118
N          2.75882       -5.96699       -6.41282
C          2.83449       -6.60319       -7.58746
S          2.83873       -8.39033       -7.67677
C          2.72029       -8.27454       -5.87253
C          2.65361       -9.16923       -4.84625
C          2.66089      -10.57921       -4.99190
C          2.66196      -11.40989       -3.93644
C          2.67000      -12.82120       -4.09330
S          3.33546      -13.80970       -2.83605
C          2.23446      -13.64917       -5.08706
N          1.63040      -13.27018       -6.25631
C          1.38719      -14.39642       -6.93444
S          1.86805      -15.98929       -6.28835
C          2.44196      -15.01636       -4.86877
C          3.02753      -15.28267       -3.66678
C          3.41922      -16.53480       -3.13669
C          2.71752      -17.65629       -3.35202
C          3.13888      -18.93403       -2.88295
S          1.91660      -20.12783       -2.55843
C          3.06228      -21.31891       -2.11003
C          4.33339      -20.82873       -2.21382
C          4.38335      -19.49197       -2.65912
S          5.99440      -18.82539       -2.87887
C          6.88239      -20.24867       -2.30577
S          8.54470      -20.27552       -2.15475
S          5.85074      -21.63280       -1.89593
H          0.75850        3.28791        0.30935
H          4.24705       -2.84565        1.64229
H          2.74671       -4.16457       -4.77941
H          2.38936       -5.79885       -2.19365
H          2.89581       -6.05634       -8.51968
H          2.67625      -10.98350       -6.00200
H          2.67674      -11.03354       -2.91758
H          0.89703      -14.37835       -7.90027
H          4.31031      -16.54317       -2.51580
H          1.77191      -17.61927       -3.88749
H          2.73877      -22.30406       -1.80693
