92

C         25.27743      -18.72730        5.06721
C         24.32506      -17.79429        5.15880
C         24.34163      -16.66218        6.04650
C         23.29280      -15.84907        5.89407
C         22.36849      -16.27257        4.85374
S         22.89831      -17.81428        4.16802
C         21.29780      -15.58396        4.41721
C         20.84533      -14.29712        4.91288
C         19.86741      -13.74864        4.17991
C         19.47511      -14.55882        3.04801
S         20.27867      -16.10409        3.07669
C         18.64253      -14.13585        2.08637
C         18.25673      -14.86179        0.88676
C         17.49693      -14.38433       -0.11063
C         17.13846      -15.12799       -1.29582
C         16.33313      -14.45648       -2.13301
C         15.97750      -13.12972       -1.66359
S         16.81663      -12.78348       -0.15263
C         15.09691      -12.27892       -2.22229
C         14.31881      -12.48006       -3.42884
C         13.34627      -11.57029       -3.60275
C         13.27517      -10.58831       -2.53759
S         14.65929      -10.74438       -1.48860
C         12.23829       -9.75495       -2.34507
C         12.11112       -8.90892       -1.19990
S         10.49101       -8.63954       -0.53824
C         11.19602       -7.89197        0.76576
C         12.56183       -7.79915        0.63099
N         13.08819       -8.32991       -0.50531
C         13.22323       -7.19166        1.84600
C         11.97319       -6.96050        2.68678
C         10.83135       -7.37037        2.02528
S          9.42807       -7.19715        2.89066
C         10.30875       -6.53051        4.24653
C         11.67948       -6.47224        3.97839
C          9.56970       -6.17142        5.41107
C         10.04086       -5.28821        6.30308
C          9.31520       -4.92853        7.50684
C          9.85865       -4.42180        8.62376
C          9.11207       -4.10711        9.81826
C          9.88664       -3.81598       10.87327
C         11.31051       -3.90166       10.59461
S         11.56623       -4.16293        8.87108
C         12.30502       -3.86072       11.50144
C         12.15422       -3.68753       12.93368
C         13.29778       -3.81482       13.62055
C         14.44378       -4.09808       12.78741
S         14.00340       -4.10288       11.09988
C         15.68228       -4.29963       13.25978
C         16.85496       -4.62377       12.46545
C         18.13357       -4.44163       12.82600
C         19.25555       -4.79451       11.99095
C         20.44251       -4.48072       12.52580
C         20.35356       -3.84843       13.83215
S         18.66472       -3.70279       14.31433
C         21.39140       -3.43205       14.58371
C         22.79578       -3.55647       14.23719
C         23.63294       -3.08227       15.16924
C         22.95412       -2.53778       16.31924
S         21.22522       -2.65342       16.16153
C         23.54973       -2.00826       17.39063
H         26.16630      -18.69285        5.68248
H         25.19157      -19.54939        4.36182
H         25.14392      -16.49214        6.75391
H         23.16288      -14.94611        6.47129
H         21.27133      -13.80973        5.77708
H         19.42946      -12.78138        4.38467
H         18.23503      -13.13109        2.19389
H         18.63107      -15.87921        0.79576
H         17.48761      -16.13602       -1.47441
H         15.96131      -14.87564       -3.05666
H         14.49023      -13.30200       -4.10911
H         12.64899      -11.58690       -4.42879
H         11.39755       -9.79053       -3.03040
H         13.72988       -6.25400        1.60677
H         13.90065       -7.90154        2.32890
H         12.41786       -6.12064        4.68913
H          8.60839       -6.65258        5.57498
H         11.00079       -4.80245        6.14331
H          8.24448       -5.12349        7.49040
H          8.03218       -4.13428        9.85513
H          9.48675       -3.58480       11.84954
H         11.20614       -3.48512       13.41009
H         13.36805       -3.72817       14.69629
H         15.83878       -4.23211       14.33487
H         16.65949       -5.06011       11.48702
H         19.13689       -5.26253       11.02281
H         21.37788       -4.67505       12.02180
H         23.14371       -3.99971       13.31684
H         24.70877       -3.09879       15.08453
H         24.62874       -1.95112       17.46903
H         22.97003       -1.61596       18.22035
