113

C         -8.31519       -3.04421        2.60781
C         -7.78034       -3.57605        3.73500
C         -7.55405       -4.96947        3.88794
N         -7.33718       -6.11131        3.99551
C         -7.45653       -2.76206        4.86382
N         -7.18690       -2.09883        5.77182
C         -8.78485       -3.79241        1.41076
C         -9.71551       -2.98561        0.74625
C        -10.27408       -3.29488       -0.48325
C         -9.80593       -4.45951       -1.12954
C         -8.87532       -5.27966       -0.46910
C         -8.36690       -4.97890        0.82051
S         -8.42943       -6.62682       -1.45786
C         -9.38533       -6.08567       -2.73917
C        -10.08528       -4.94565       -2.45182
Br        -9.46667       -6.95078       -4.39834
C         -9.84356       -1.68478        1.42165
O        -10.72888       -0.87351        1.26921
C         -8.68423       -1.63807        2.36154
C         -7.94410       -0.54177        2.59203
C         -8.04268        0.78193        1.93522
C         -7.31413        0.94659        0.73380
C         -7.09132        2.21334        0.16113
C         -7.55376        3.36253        0.79569
C         -8.28488        3.20840        1.96115
C         -8.56814        1.93768        2.50851
N         -9.36254        2.12412        3.65667
C        -10.24313        1.14809        4.23542
C         -9.60392        3.48348        3.89779
O        -10.29123        3.95804        4.79117
C         -8.83192        4.28940        2.85492
C         -9.73580        5.36928        2.26299
C        -10.65945        4.84553        1.14888
O        -11.47582        3.94420        1.26272
N        -10.41145        5.61392        0.00568
C        -11.13444        5.47406       -1.22967
C         -9.45811        6.60766        0.25107
C         -8.99174        7.59795       -0.59950
C         -8.06029        8.51704       -0.09454
C         -7.61094        8.40429        1.23736
C         -8.08320        7.38984        2.07777
C         -9.00813        6.49578        1.56668
C         -7.57693        9.62694       -0.92467
C         -6.45601        9.55073       -1.65873
C         -5.96841       10.66251       -2.46433
C         -4.87975       10.67072       -3.25106
C         -4.45980       11.79078       -4.06586
C         -3.42797       11.51889       -4.88047
C         -2.97086       10.14813       -4.79173
S         -3.80331        9.32392       -3.46352
C         -2.12858        9.51916       -5.63130
C         -1.43339       10.04752       -6.78833
C         -0.86564        9.10170       -7.55892
C         -1.06655        7.74867       -7.06964
S         -1.84566        7.80461       -5.51447
C         -0.77387        6.62420       -7.75273
C         -1.04378        5.29496       -7.31023
S         -1.60554        4.02523       -8.35494
C         -1.82014        2.86876       -7.05201
C         -1.41194        3.48029       -5.90940
C         -0.93433        4.76226       -6.07336
O         -0.44788        5.38637       -4.96549
C         -0.76986        4.45619       -4.00872
N         -0.49266        4.87536       -2.66278
O         -0.70264        4.03538       -1.77504
O         -0.07582        6.02508       -2.48226
C         -1.30589        3.26329       -4.51207
C         -2.35567        1.57583       -7.31542
C         -1.59254        0.48305       -7.47217
C         -2.09594       -0.87114       -7.59642
C         -1.17667       -1.80122       -7.28307
C          0.08778       -1.21186       -6.86602
S          0.15028        0.46442       -7.40798
C          0.97890       -1.74097       -6.00692
C          0.90042       -3.04313       -5.36859
C          1.65853       -3.14125       -4.26535
C          2.39305       -1.93506       -3.97649
S          2.29813       -0.80415       -5.29060
C          3.03477       -1.66055       -2.83887
H        -10.96136       -2.60651       -0.96743
H         -7.61161       -5.62474        1.25674
H        -10.74412       -4.44609       -3.15225
H         -7.02999       -0.61479        3.17868
H         -6.85319        0.08827        0.24444
H         -6.51424        2.30630       -0.75316
H         -7.33287        4.34337        0.38533
H         -9.94010        0.12243        4.04889
H        -11.24859        1.30943        3.82864
H        -10.29197        1.31020        5.31618
H         -7.98640        4.74189        3.38966
H        -10.37989        5.82411        3.02688
H        -11.70479        4.54072       -1.23632
H        -10.43654        5.46872       -2.07168
H        -11.83101        6.31199       -1.32765
H         -9.34920        7.67748       -1.62008
H         -6.89908        9.12777        1.63142
H         -7.74711        7.33017        3.10853
H         -8.17696       10.53166       -0.89223
H         -5.88251        8.62523       -1.66141
H         -6.57313       11.56645       -2.42645
H         -4.95768       12.74919       -4.03388
H         -3.01046       12.23085       -5.57780
H         -1.39960       11.10244       -7.02106
H         -0.33219        9.31423       -8.47566
H         -0.37563        6.72516       -8.75956
H         -1.58473        2.39702       -3.92962
H         -3.43706        1.48199       -7.31299
H         -3.12230       -1.09787       -7.85139
H         -1.38149       -2.86255       -7.25280
H          0.25985       -3.83950       -5.71934
H          1.70323       -4.01399       -3.62963
H          3.05742       -2.36265       -2.01401
H          3.52809       -0.70407       -2.68908
