88

C        -11.24246       -0.90032        2.01236
C        -11.58735       -0.95106        0.70449
C        -12.21964       -2.08574        0.12930
N        -12.73665       -3.01160       -0.35403
C        -11.43456        0.17343       -0.16513
N        -11.31357        1.09520       -0.85227
C        -11.57468       -1.93742        3.03656
C        -11.57582       -1.30807        4.28192
C        -11.91365       -1.93413        5.46976
C        -12.29131       -3.29085        5.41334
C        -12.27630       -3.94502        4.17059
C        -11.87734       -3.29557        2.97122
S        -12.82571       -5.57884        4.33328
C        -13.09108       -5.39402        5.99087
C        -12.71507       -4.16779        6.46570
Br       -13.83691       -6.72321        7.08029
C        -11.15853        0.09519        4.17485
O        -11.22589        0.90000        5.07904
C        -10.72256        0.27334        2.75398
C         -9.86797        1.23876        2.37241
C         -9.24727        2.21024        3.22175
C         -9.76203        3.46460        3.48398
C        -11.02606        4.12484        3.07394
N         -8.86366        4.11004        4.29735
C         -7.81549        3.27919        4.61664
C         -6.73963        3.75295        5.52991
C         -8.02316        2.08070        3.95010
C         -7.15996        0.94196        4.05415
C         -6.98544        0.00586        3.10499
C         -6.15062       -1.16804        3.24012
C         -6.29877       -2.12869        4.18535
O         -5.46497       -3.24815        4.25818
C         -4.47975       -3.29645        3.33909
C         -4.31921       -2.30075        2.35528
C         -3.23861       -2.52584        1.54323
S         -2.43527       -3.98571        1.98502
C         -3.54315       -4.29301        3.26502
O         -5.15285       -1.23884        2.25855
C         -7.31990       -2.12240        5.20392
C         -7.02369       -2.21457        6.50691
C         -8.03847       -2.18566        7.53074
C         -7.92380       -2.67680        8.77183
C         -8.95540       -2.52671        9.76543
C         -8.60136       -2.97695       10.97348
C         -7.27515       -3.56107       11.02021
S         -6.54567       -3.53538        9.41598
C         -6.66084       -3.97109       12.14322
C         -7.21994       -3.95155       13.48129
C         -6.28772       -3.95222       14.44465
C         -4.93824       -3.97360       13.91643
S         -4.98834       -4.46122       12.23659
C         -3.87675       -3.58164       14.64053
C         -2.53446       -3.43184       14.19802
S         -1.91951       -3.51304       12.57243
C         -0.30196       -3.12371       13.00882
C         -0.28755       -2.92760       14.33936
C         -1.48717       -3.10058       14.98778
O         -1.49226       -2.87848       16.33525
C         -0.16633       -2.50507       16.50068
N          0.19931       -2.11690       17.83189
O          1.37911       -1.77949       18.00019
O         -0.68079       -2.13376       18.70133
C          0.60770       -2.52506       15.33342
H        -11.90749       -1.37261        6.39908
H        -11.84795       -3.87067        2.05134
H        -12.77790       -3.87847        7.50747
H         -9.49275        1.26145        1.35401
H        -11.83779        3.39611        2.98777
H        -10.89988        4.62446        2.10944
H        -11.33476        4.87286        3.81256
H         -8.97230        5.05618        4.63862
H         -6.79574        4.83780        5.68003
H         -5.74952        3.52914        5.12177
H         -6.83183        3.27673        6.51099
H         -6.60967        0.84126        4.98909
H         -7.46399        0.09976        2.13659
H         -2.87298       -1.92209        0.72538
H         -3.44764       -5.16856        3.89203
H         -8.34801       -2.04603        4.86327
H         -5.98319       -2.27958        6.82334
H         -8.96116       -1.67775        7.25455
H         -9.89724       -2.04020        9.55874
H         -9.22338       -2.85945       11.84728
H         -8.28029       -3.91387       13.67768
H         -6.50407       -3.89846       15.50214
H         -4.06682       -3.28194       15.67271
H          0.47719       -3.04374       12.26601
H          1.64604       -2.24833       15.22246
