81

C         -3.82623       -0.51148       -1.41135
C         -2.89933       -0.89927       -2.36633
C         -2.10205       -2.09191       -2.25168
N         -1.21952       -2.36160       -3.25038
C         -1.13517       -1.51716       -4.31869
C         -1.91023       -0.38717       -4.39646
N         -2.79540       -0.07071       -3.41712
C         -1.83687        0.52718       -5.49580
N         -1.75927        1.25374       -6.39548
C         -0.18104       -1.87151       -5.32839
N          0.59563       -2.13328       -6.15150
C         -2.21301       -2.97045       -1.13669
C         -3.14565       -2.57493       -0.11560
C         -3.96369       -1.32784       -0.27728
N         -4.80414       -1.09116        0.73965
S         -4.58346       -2.31723        1.83033
N         -3.40782       -3.18167        1.05488
C         -1.44461       -4.21694       -0.97852
S         -2.06539       -5.64793       -0.18062
C         -0.57448       -6.54185       -0.30378
C          0.24942       -5.79433       -1.06664
C         -0.20742       -4.54559       -1.41018
N          0.72215       -3.86419       -2.13508
N          1.84251       -4.62771       -2.32947
C          1.54410       -5.79677       -1.68291
C         -0.41902       -7.79849        0.32789
C          0.79579       -8.19697        0.73585
C          0.99302       -9.49369        1.36643
C          0.92978       -9.69020        2.74742
C          0.61593       -8.65812        3.74636
O          0.23904       -7.52928        3.49830
S          0.79016       -9.26945        5.36788
C          1.18145      -10.87221        4.78983
O          1.47163      -11.78299        5.54074
C          1.15131      -10.95263        3.31674
C          1.33898      -12.10618        2.52136
C          1.31629      -11.88977        1.13505
C          1.22214      -10.62623        0.59364
C          1.41475      -10.72919       -0.84284
O          1.57649       -9.82044       -1.63076
O          1.43922      -12.05017       -1.11663
C          1.32741      -12.80980        0.00012
O          1.21861      -14.01338        0.01107
C          1.49678      -13.43779        3.13132
C          2.27644      -14.41454        2.64267
C          2.39982      -15.71974        3.30070
C          3.45708      -15.90040        4.20304
F          4.31916      -14.89846        4.44093
C          3.65436      -17.11143        4.85601
C          2.78761      -18.17215        4.61047
C          1.73113      -18.01650        3.70800
C          1.52475      -16.79595        3.04363
C          0.41575      -16.71828        2.07284
C          0.52675      -17.00927        0.76702
C          1.71954      -17.43815        0.08202
C          1.58909      -17.46848       -1.24898
C          0.27267      -17.08090       -1.73083
S         -0.81583      -16.85396       -0.35790
C         -0.05133      -16.90931       -3.02849
C          0.89343      -16.95954       -4.13455
C          0.33707      -16.81692       -5.34349
C         -1.09257      -16.66690       -5.29054
S         -1.67246      -16.58057       -3.64564
C         -1.88828      -16.61794       -6.36203
H         -4.41792        0.39079       -1.52236
H          0.63392       -2.94753       -2.55476
H          2.27642       -6.59429       -1.69161
H         -1.30367       -8.40569        0.49960
H          1.68585       -7.58293        0.61665
H          0.96466      -13.61553        4.06576
H          2.87505      -14.31642        1.74294
H          4.48474      -17.21636        5.54708
H          2.93614      -19.12295        5.11607
H          1.07038      -18.86077        3.51763
H         -0.53002      -16.37650        2.48444
H          2.63577      -17.69020        0.59532
H          2.39291      -17.76921       -1.90387
H          1.95950      -17.06522       -3.99761
H          0.89567      -16.81160       -6.26903
H         -1.48463      -16.68808       -7.36735
H         -2.96493      -16.52428       -6.26876
