108

C          5.93519        5.81508       -0.48446
C          4.85719        6.63767       -0.18301
F          3.65857        6.36991       -0.71574
C          5.00401        7.73578        0.65427
C          6.23703        7.98652        1.25930
C          7.33420        7.14686        1.01548
C          7.19208        6.07736        0.07562
C          8.30470        5.30616       -0.29098
C          9.51791        5.57890        0.31384
C          9.59985        6.49253        1.37385
C          8.54968        7.32775        1.69658
C         10.90170        6.31955        2.07939
O         11.29327        6.92349        3.05398
C         11.56934        5.16898        1.37014
C         10.88656        5.09826        0.07925
C         11.46805        5.07921       -1.14409
C         12.88689        5.15674       -1.28681
N         14.02867        5.29761       -1.41177
C         10.70419        5.12666       -2.34342
N         10.05891        5.14927       -3.30701
C         12.33811        4.28737        2.04009
C         12.67986        2.94866        1.61511
S         11.93173        2.20113        0.25306
C         12.75375        0.73356        0.40465
C         13.54426        0.74217        1.54037
C         13.49965        2.00825        2.24671
C         14.20982        2.17963        3.57024
C         15.17497        1.02741        3.90631
C         14.62856       -0.35520        3.54410
C         13.42441       -0.74101        4.38343
O         12.25588       -0.52988        4.07751
C         14.32367       -0.43799        2.05618
C         12.47640       -0.29108       -0.54683
C         13.41082       -1.19616       -0.85758
C         13.18372       -2.36578       -1.66133
C         14.11478       -3.31056       -1.90456
C         15.54133       -3.24477       -1.42127
C         13.76271       -4.51945       -2.72796
N         13.33082       -5.58237       -1.83714
C         12.02007       -5.78680       -1.48083
C         11.50162       -6.71631       -0.66958
C         10.07182       -6.75038       -0.41031
C          9.39309       -7.62174        0.34882
C          7.95918       -7.58458        0.52025
C          7.47332       -8.61204        1.23045
C          8.49441       -9.52799        1.70459
S         10.09541       -8.94166        1.23433
C          8.29502      -10.67382        2.38132
C          7.02414      -11.30083        2.69534
C          7.14091      -12.53240        3.21729
C          8.51337      -12.95914        3.37406
S          9.61212      -11.65009        3.01130
C          8.90859      -14.18940        3.73880
C         10.29105      -14.62359        3.86151
C         11.20756      -14.66016        2.87882
C         12.63002      -15.06434        2.92555
C         13.49798      -14.90593        3.95622
C         14.89613      -15.14398        3.82353
N         16.03606      -15.33539        3.70597
C         13.09806      -14.39432        5.23139
N         12.78873      -13.99582        6.26602
C         13.01890      -15.40439        1.52725
C         12.04166      -14.90556        0.66958
C         10.88853      -14.41245        1.42353
O          9.88071      -13.99434        0.89363
C         12.10863      -14.96206       -0.71589
C         13.22409      -15.60791       -1.28401
C         14.17445      -16.19052       -0.42991
C         14.08541      -16.10854        0.98314
S         15.41112      -16.98593       -1.33688
C         14.72164      -16.52265       -2.80587
C         13.56990      -15.79796       -2.66343
Br        15.45872      -16.96464       -4.46960
H          5.77691        4.97386       -1.15331
H          4.15305        8.38225        0.84203
H          6.33232        8.84114        1.92436
H          8.21165        4.51802       -1.03158
H          8.66892        8.07783        2.47268
H         12.63330        4.55253        3.05529
H         13.45576        2.24813        4.36419
H         14.77268        3.12013        3.57410
H         15.43727        1.06513        4.96976
H         16.10916        1.18051        3.34804
H         15.38916       -1.11649        3.76335
H         13.66211       -1.22277        5.34621
H         13.78644       -1.37199        1.85231
H         15.27494       -0.47419        1.50840
H         11.48487       -0.34029       -0.98804
H         14.40514       -1.08295       -0.44575
H         12.17340       -2.50094       -2.04606
H         15.63917       -2.74614       -0.45265
H         16.15545       -2.70805       -2.15223
H         15.96320       -4.24468       -1.28442
H         14.62090       -4.84765       -3.32342
H         12.96748       -4.28477       -3.44773
H         14.01652       -5.90449       -1.15785
H         11.35513       -5.06914       -1.95691
H         12.14034       -7.47009       -0.22167
H          9.49838       -5.97041       -0.91085
H          7.34400       -6.79797        0.10534
H          6.42256       -8.73254        1.45223
H          6.06965      -10.83793        2.49093
H          6.30160      -13.16259        3.47701
H          8.16500      -14.94078        3.99359
H         10.53456      -14.94362        4.87264
H         11.31762      -14.53423       -1.32540
H         14.83974      -16.59961        1.58925
H         12.98547      -15.41522       -3.49165
