122

C        -11.75054       -6.81656        8.05489
C        -12.34635       -7.90846        7.40933
C        -11.63610       -8.67639        6.47458
C        -10.29532       -8.40897        6.20975
C         -9.68816       -7.37323        6.90240
C        -10.42084       -6.53014        7.78497
C         -9.54247       -5.35927        8.15072
C         -9.65312       -4.53620        9.21505
C        -10.67163       -4.70270       10.19518
N        -11.49172       -4.85704       11.00172
C         -8.68968       -3.51937        9.47200
N         -7.90812       -2.68240        9.65824
C         -8.41473       -5.42473        7.17762
C         -8.30122       -6.86007        6.85507
C         -7.17046       -7.59772        6.81893
C         -5.91336       -7.03245        7.18039
N         -4.90086       -6.59454        7.54172
C         -7.18497       -8.99038        6.52013
N         -7.20327      -10.11337        6.24802
C         -7.94883       -4.39212        6.43430
C         -7.24108       -4.51737        5.18041
S         -7.55382       -5.82645        4.08928
C         -6.27527       -5.43093        3.04887
C         -5.81290       -4.15235        3.32824
C         -6.40325       -3.60579        4.53846
C         -6.06926       -2.20921        5.00780
C         -5.45022       -1.35154        3.89415
C         -4.32684       -2.10612        3.18094
C         -4.85932       -3.35672        2.47118
C         -5.94697       -6.31881        1.97427
C         -5.00762       -7.27859        2.20191
C         -4.38595       -7.92164        1.05344
C         -3.25400       -8.67416        0.95507
C         -2.39378       -9.26867        2.06425
C         -2.32698      -10.81835        1.99387
N         -3.63173      -11.47022        2.14506
C         -0.95971       -8.67448        2.13790
N         -0.16688       -9.18048        3.26640
C         -2.96854       -8.67547       -0.48707
C         -1.85399       -8.97466       -1.17236
C         -1.72748       -8.66112       -2.65768
C         -3.00088       -8.19931       -3.33831
C         -4.12550       -7.93941       -2.65513
C         -4.07219       -8.07027       -1.22416
C         -4.90578       -7.59783       -0.29446
C         -6.08950       -6.79645       -0.45288
C         -6.55836       -6.16661        0.63779
C         -1.16144       -9.83373       -3.37874
C         -1.67927      -11.06702       -3.34099
C         -1.04247      -12.16949       -3.95853
S         -2.04301      -13.41470       -4.56519
C         -0.73460      -14.49554       -4.83113
C          0.45101      -13.76862       -4.80240
C          0.28373      -12.46119       -4.21806
C          1.51512      -11.62912       -4.00682
C          2.31406      -11.64584       -5.30522
C          2.74003      -13.06729       -5.69682
C          1.82537      -14.21863       -5.21844
C         -0.92914      -15.86510       -5.20425
C         -1.96728      -16.67073       -4.88886
C         -2.28138      -17.89947       -5.67305
C         -1.44080      -18.91410       -5.97505
C         -0.07610      -18.90496       -5.56714
N          1.03796      -18.87658       -5.24166
C         -1.87658      -20.09612       -6.65304
N         -2.22929      -21.05022       -7.19871
C         -3.76061      -17.82934       -5.90275
C         -4.31264      -16.87018       -5.00446
C         -5.64649      -16.49623       -5.09671
C         -6.44730      -17.10966       -6.06185
C         -5.91265      -18.06956       -6.93142
C         -4.56264      -18.42593       -6.86572
C         -3.20975      -16.35624       -4.14185
C         -3.31523      -15.93067       -2.85943
C         -4.57347      -15.73414       -2.22211
N         -5.60433      -15.57167       -1.71419
C         -2.16291      -15.73468       -2.03965
N         -1.23603      -15.60991       -1.35192
H        -12.35847       -6.21595        8.72241
H        -13.38853       -8.15009        7.61126
H        -12.13696       -9.48554        5.94598
H         -9.76988       -8.98871        5.45656
H         -8.20140       -3.37131        6.71380
H         -5.36901       -2.27269        5.84901
H         -6.97410       -1.70622        5.36828
H         -5.06384       -0.41776        4.31943
H         -6.22064       -1.07148        3.16332
H         -3.56166       -2.39069        3.91398
H         -3.83967       -1.44969        2.45010
H         -4.01387       -3.97558        2.15006
H         -5.39777       -3.04557        1.56627
H         -4.58489       -7.45738        3.18302
H         -2.87161       -9.01934        3.02251
H         -1.68161      -11.20638        2.79058
H         -1.88109      -11.13599        1.04539
H         -3.99617      -11.28983        3.08000
H         -3.49936      -12.48006        2.08927
H         -1.01295       -7.58258        2.20743
H         -0.39107       -8.91522        1.23811
H         -0.69005       -9.11483        4.13765
H          0.67062       -8.61053        3.38394
H         -0.97747       -9.39113       -0.69354
H         -1.00266       -7.84064       -2.74419
H         -2.98257       -8.07289       -4.41724
H         -5.03056       -7.61517       -3.15315
H         -6.55426       -6.68805       -1.42479
H         -7.43467       -5.53060        0.56039
H         -0.27136       -9.59943       -3.94153
H         -2.62141      -11.23601       -2.81828
H          2.10402      -12.04371       -3.18051
H          1.32473      -10.59415       -3.74035
H          3.19145      -10.99530       -5.22173
H          1.69494      -11.22548       -6.11159
H          3.74938      -13.24869       -5.30781
H          2.83304      -13.10447       -6.78936
H          2.29549      -14.71247       -4.35923
H          1.76355      -14.96245       -6.01967
H         -0.16406      -16.24244       -5.87608
H         -6.08132      -15.72121       -4.47277
H         -7.49379      -16.82531       -6.15421
H         -6.55217      -18.52287       -7.68671
H         -4.17882      -19.12985       -7.59620
