127

C          3.87363       -3.32238       -2.93099
C          5.07886       -3.63730       -3.46569
C          5.85878       -2.70970       -4.21581
N          6.49101       -1.94891       -4.82326
C          5.64553       -4.94694       -3.37741
N          6.11032       -6.00088       -3.30492
C          3.14402       -2.02977       -3.10463
C          1.79273       -2.23735       -2.78916
C          0.82246       -1.24845       -2.86856
C          1.22739        0.02617       -3.25979
C          2.58258        0.27791       -3.54864
C          3.54267       -0.74897       -3.46766
Cl         3.14377        1.84922       -4.00431
Cl         0.02089        1.25852       -3.34846
C          1.57502       -3.60800       -2.30789
O          0.49081       -4.07672       -2.04140
C          2.94133       -4.23591       -2.22679
C          3.20253       -5.33332       -1.49647
C          2.21091       -6.11075       -0.74501
C          1.53080       -7.16246       -1.37111
C          0.59236       -7.88194       -0.64174
C          0.35312       -7.57432        0.71502
C          1.00827       -6.52184        1.33447
C          1.93817       -5.78584        0.59624
C         -0.67417       -8.44761        1.22842
C         -1.15940       -9.25899        0.18751
C         -0.37019       -8.98544       -1.11303
C         -1.31986       -8.50122       -2.24008
C         -2.07129       -7.19606       -1.96276
C          0.38526      -10.29453       -1.48947
C          1.21745      -10.27397       -2.76821
C         -2.22177      -10.13823        0.39504
C         -2.79127      -10.25078        1.67364
C         -2.23822       -9.46113        2.71692
C         -1.19477       -8.55586        2.50109
C         -3.98153      -11.10610        1.92271
S         -5.09431      -10.55572        3.11176
C         -6.21344      -11.85069        2.92257
C         -5.76516      -12.67494        1.90496
C         -4.46504      -12.27912        1.36769
C         -3.78871      -13.02161        0.38631
C         -4.50414      -14.15726       -0.05051
S         -3.71509      -15.21857       -1.26680
C         -5.79561      -14.50849        0.45753
O         -6.44728      -15.61775       -0.03628
C         -6.48075      -13.79691        1.45881
C         -7.38038      -11.92662        3.75336
C         -7.64545      -11.02026        4.70799
C         -8.83005      -11.08017        5.54970
C         -8.76874      -11.74237        6.78105
C         -9.88371      -11.68968        7.60299
C        -11.05217      -11.00980        7.19105
C        -11.11874      -10.37692        5.95981
C         -9.99393      -10.40688        5.13839
C        -12.03635      -11.07939        8.24458
C        -11.50784      -11.80733        9.32876
C        -10.07630      -12.27395        9.01576
C         -9.96172      -13.82615        8.91513
C        -10.31376      -14.62248       10.16775
C         -9.06924      -11.67594       10.03628
C         -8.99653      -10.14626       10.07587
C        -12.23811      -11.95578       10.50316
C        -13.53457      -11.42555       10.57036
C        -14.05145      -10.69834        9.48493
C        -13.29759      -10.51156        8.32070
C        -14.37354      -11.71481       11.74134
C        -14.50514      -10.96573       12.84666
C        -15.15479      -11.31364       14.12882
C        -16.31845      -11.99303       14.27816
C        -16.93909      -12.15975       15.54435
N        -17.43565      -12.28871       16.59078
C        -17.04591      -12.51863       13.16787
N        -17.63383      -12.95174       12.26542
C        -14.38550      -10.59216       15.18973
C        -13.56117       -9.64889       14.55149
C        -13.76152       -9.69652       13.09998
O        -13.46905       -8.80906       12.32329
C        -12.66465       -8.82711       15.21570
C        -12.58476       -8.94661       16.60024
C        -13.41009       -9.86806       17.27796
C        -14.31000      -10.69690       16.57343
Cl       -13.35513      -10.03716       18.99921
Cl       -11.43647       -7.94941       17.41930
H         -0.21133       -1.46755       -2.61483
H          4.57801       -0.49905       -3.67660
H          4.20731       -5.72178       -1.36257
H          1.71388       -7.38184       -2.41636
H          0.78353       -6.24650        2.35938
H          2.43493       -4.94309        1.07011
H         -2.06510       -9.27991       -2.44836
H         -0.75654       -8.35613       -3.16898
H         -2.62072       -7.22348       -1.01736
H         -2.79844       -7.01048       -2.76040
H         -1.38936       -6.34048       -1.94166
H         -0.33754      -11.11519       -1.59639
H          1.04778      -10.58725       -0.66303
H          0.58651      -10.19437       -3.65790
H          1.78699      -11.20613       -2.85193
H          1.94758       -9.46495       -2.78266
H         -2.61169      -10.69392       -0.44927
H         -2.63507       -9.51873        3.72918
H         -0.81772       -7.95564        3.32192
H         -2.80996      -12.78468       -0.00419
H         -2.97429      -15.89942       -0.37769
H         -5.89600      -15.96170       -0.76475
H         -7.45455      -14.11077        1.81071
H         -8.06971      -12.75475        3.60682
H         -7.00961      -10.16762        4.92645
H         -7.86327      -12.25615        7.08916
H        -12.01122       -9.84950        5.64198
H        -10.01664       -9.88525        4.18323
H         -8.93590      -14.09719        8.62719
H        -10.60368      -14.19715        8.10376
H         -9.76753      -14.27473       11.04806
H        -10.06906      -15.68063       10.02240
H        -11.38664      -14.57804       10.37275
H         -8.05909      -12.05372        9.83328
H         -9.32704      -12.01489       11.04719
H         -8.54935       -9.74345        9.16192
H         -8.36993       -9.82521       10.91464
H         -9.98043       -9.68697       10.21024
H        -11.80567      -12.47730       11.35019
H        -15.04726      -10.26574        9.53912
H        -13.69643       -9.92303        7.50129
H        -14.83950      -12.69447       11.66553
H        -12.03852       -8.13503       14.65985
H        -14.90961      -11.40597       17.13665
