142

C          3.57592      -14.07885        0.27285
C          4.24255      -13.49864        1.29783
C          5.52606      -13.94808        1.72409
N          6.57357      -14.32691        2.04758
C          3.62069      -12.55384        2.16616
N          3.12676      -11.83538        2.92755
C          3.92203      -15.43119       -0.23666
C          2.72028      -16.14728       -0.38207
C          2.68665      -17.49991       -0.67593
C          3.90903      -18.13966       -0.90598
C          5.11793      -17.41001       -0.87054
C          5.12625      -16.04825       -0.53136
Cl         6.64381      -18.13786       -1.23393
Cl         3.87644      -19.83496       -1.24112
C          1.57183      -15.22057       -0.24603
O          0.39681      -15.51608       -0.23738
C          2.19268      -13.84676       -0.13375
C          1.53583      -12.79807       -0.65793
C          1.95688      -11.40994       -0.96855
C          2.24368      -10.92283       -2.26303
C          2.63332      -11.79678       -3.42078
O          2.15842      -12.92205       -3.52772
C          3.71534      -11.29250       -4.30966
C          4.83742      -10.66626       -3.77475
S          5.99899      -10.22882       -4.93467
C          5.05410      -10.89107       -6.18490
C          3.80502      -11.33663       -5.77253
C          2.77179      -11.81882       -6.70979
O          1.85633      -12.54730       -6.33981
C          2.78279      -11.41842       -8.16034
C          3.25403      -10.17731       -8.61625
C          3.23525       -9.86616       -9.98171
C          2.70776      -10.77145      -10.89981
C          2.19414      -11.98757      -10.45604
C          2.23178      -12.30983       -9.09535
C          2.24188       -9.53052       -2.49986
C          2.11613       -8.62209       -1.45644
C          1.98450       -9.07625       -0.14960
C          1.86630      -10.46887        0.07010
C          1.88084       -8.08716        0.95086
C          0.98642       -8.36486        1.92280
C          0.73949       -7.43624        2.99058
C         -0.00931       -7.55259        4.11506
C         -0.65317       -8.75675        4.79636
C         -0.90724      -10.02130        3.92165
N          0.24888      -10.88528        3.67588
C          0.04744       -9.17343        6.12970
N          1.45290       -9.57901        6.01901
C         -0.21073       -6.14799        4.51647
C         -1.05098       -5.58964        5.40044
C         -1.12859       -4.07123        5.61758
C         -0.24609       -3.26782        4.67520
C          0.59962       -3.82760        3.79264
C          0.60773       -5.26112        3.68594
C          1.23640       -6.05877        2.81581
C          2.25697       -5.79588        1.82714
C          2.59844       -6.79224        0.98190
C         -0.86928       -3.78248        7.08235
C         -0.06275       -2.87452        7.67721
C          0.10935       -2.73252        9.15852
C          0.69155       -1.61572        9.82645
C          1.41136       -0.48817        9.15164
O          1.04297       -0.17205        8.02005
C          2.51724        0.29843        9.79292
C          2.82248        1.53543        9.22453
S          4.21460        2.28271        9.84948
C          4.45816        0.99368       10.92132
C          3.41027        0.07998       10.94218
C          3.41951       -0.98763       11.95308
O          3.25303       -2.15886       11.63347
C          3.69681       -0.65518       13.40622
C          3.89154       -1.72442       14.29386
C          4.37484       -1.50131       15.58740
C          4.65511       -0.20615       16.01522
C          4.36294        0.87223       15.18539
C          3.84952        0.65152       13.90160
C          0.54125       -1.51130       11.21868
C          0.06914       -2.57270       11.98619
C         -0.37970       -3.72677       11.36437
C         -0.37476       -3.78989        9.97112
C         -1.07534       -4.74116       12.15907
C         -0.65239       -5.93633       12.60041
C         -1.39382       -6.93634       13.41982
C         -2.49730       -6.72430       14.16300
C         -3.11970       -7.73250       14.94709
N         -3.63538       -8.55745       15.58687
C         -3.14007       -5.45571       14.29599
N         -3.65972       -4.42512       14.41273
C         -0.58840       -8.20092       13.37765
C          0.62505       -7.93791       12.72882
C          0.67471       -6.54554       12.25256
O          1.62247       -6.04539       11.68904
C          1.62682       -8.88716       12.56599
C          1.41133      -10.16474       13.08381
C          0.19640      -10.46550       13.72499
C         -0.80722       -9.48815       13.86110
Cl        -0.12665      -12.02951       14.39221
Cl         2.67416      -11.33001       12.91219
H          1.74292      -18.03444       -0.73655
H          6.06560      -15.50289       -0.50833
H          0.50958      -12.97836       -0.99444
H          5.04373      -10.44371       -2.73586
H          5.46650      -10.88038       -7.18503
H          3.62923       -9.42518       -7.92830
H          3.62100       -8.91000      -10.32946
H          2.68229      -10.52335      -11.95920
H          1.75779      -12.68492      -11.16801
H          1.81836      -13.26173       -8.76565
H          2.35112       -9.13600       -3.50685
H          2.11537       -7.55672       -1.67940
H          1.65090      -10.82290        1.07389
H          0.32340       -9.20587        1.81989
H         -1.66395       -8.43277        5.08214
H         -1.37493       -9.72792        2.97540
H         -1.64622      -10.65078        4.43027
H          1.08404      -10.32527        3.47450
H          0.09490      -11.45921        2.84943
H         -0.50441      -10.02249        6.55594
H         -0.01967       -8.36248        6.86136
H          1.50633      -10.33594        5.32836
H          1.75211      -10.01362        6.89060
H         -1.73172       -6.20830        5.97445
H         -2.16804       -3.78145        5.40533
H         -0.33390       -2.18498        4.71351
H          1.19787       -3.22593        3.11926
H          2.78129       -4.84769        1.83650
H          3.40996       -6.64450        0.27636
H         -1.45957       -4.45377        7.69693
H          0.47757       -2.16869        7.05353
H          2.29780        2.02546        8.41424
H          5.34345        0.99014       11.54613
H          3.70409       -2.74707       13.96994
H          4.56725       -2.34412       16.24710
H          5.09714       -0.03765       16.99481
H          4.56064        1.88657       15.52735
H          3.61953        1.52679       13.30057
H          0.82568       -0.60284       11.73930
H          0.05780       -2.48225       13.06821
H         -0.78495       -4.69193        9.52830
H         -2.07828       -4.38589       12.36266
H          2.55141       -8.63235       12.05430
H         -1.72923       -9.78258       14.35070
