114

C         -8.43351       -4.97755       -2.68806
C         -8.10741       -4.74540       -1.39618
C         -7.43560       -3.55711       -0.98350
N         -6.86839       -2.59574       -0.67857
C         -8.58948       -5.58209       -0.34589
N         -9.04950       -6.20050        0.52334
C         -8.51441       -3.94120       -3.74565
C         -9.62919       -4.25230       -4.55031
C        -10.05201       -3.45036       -5.59517
C         -9.30043       -2.30611       -5.87114
C         -8.14058       -2.01155       -5.12004
C         -7.74584       -2.82974       -4.04810
Cl        -7.13574       -0.65229       -5.48428
Cl        -9.83279       -1.29902       -7.16996
C        -10.16295       -5.58682       -4.19251
O        -11.11207       -6.14861       -4.69267
C         -9.17792       -6.12670       -3.20086
C         -8.85643       -7.42572       -3.31769
C         -7.55489       -7.92971       -3.01643
C         -6.45658       -8.09492       -3.85011
C         -6.44290       -7.68650       -5.19346
C         -5.21757       -7.95557       -5.84246
C         -4.11000       -8.59655       -5.21505
C         -4.12001       -9.03616       -3.87393
C         -5.32957       -8.73876       -3.20369
C         -5.58892       -8.95215       -1.86992
S         -7.20270       -8.55742       -1.45375
C         -2.94738       -9.65536       -3.27122
C         -3.01390      -10.68516       -2.41713
C         -1.91656      -11.14238       -1.57893
C         -2.26521      -11.92577       -0.52511
C         -1.32994      -12.12936        0.55780
C         -1.51386      -12.61921        1.81333
C         -2.69958      -13.33188        2.45125
C         -3.67628      -12.36216        3.17073
N         -4.29513      -11.35875        2.30023
C         -3.51730      -14.28371        1.52626
N         -2.73264      -15.38243        0.95619
C         -0.29664      -12.19210        2.53450
C         -0.01475      -12.09060        3.84277
C          1.25320      -11.38343        4.35033
C          2.17699      -10.88638        3.23910
C          1.91945      -11.05155        1.93674
C          0.64888      -11.60629        1.59130
C          0.01345      -11.54126        0.42060
C          0.42199      -10.89881       -0.79492
C         -0.51516      -10.69729       -1.73643
C          1.99142      -12.27679        5.31437
C          3.32343      -12.29273        5.49518
C          3.90751      -13.19236        6.40870
C          4.40400      -14.46465        6.21557
C          4.40352      -15.11307        4.97125
C          4.93363      -16.41686        5.04445
C          5.41345      -17.00921        6.25224
C          5.43688      -16.34982        7.50659
C          4.90520      -15.05197        7.43485
C          4.82533      -14.17696        8.49323
S          4.12444      -12.68481        8.04001
C          5.88751      -16.93718        8.76033
C          6.85955      -17.85981        8.80358
C          7.29939      -18.44479       10.04649
C          7.30117      -19.75474       10.32538
C          7.65782      -20.43966       11.58391
C          8.56198      -20.01931       12.50927
C          8.90863      -20.80068       13.64040
N          9.18799      -21.44692       14.57239
C          9.27828      -18.78888       12.39215
N          9.85810      -17.78679       12.30471
C          6.97619      -21.77260       11.54247
C          6.45475      -21.96873       10.25238
C          6.68494      -20.78356        9.41578
O          6.39418      -20.69910        8.24038
C          5.76716      -23.11022        9.86202
C          5.57407      -24.10878       10.81399
C          6.05684      -23.93350       12.12541
C          6.75194      -22.76342       12.49226
Cl         5.81812      -25.12848       13.35336
Cl         4.71718      -25.52702       10.32693
H        -10.92087       -3.72242       -6.18750
H         -6.84213       -2.59011       -3.49453
H         -9.49465       -8.08519       -3.90534
H         -7.26295       -7.20570       -5.70959
H         -5.10464       -7.66150       -6.88670
H         -3.21127       -8.75917       -5.81304
H         -4.94678       -9.35062       -1.09699
H         -2.00055       -9.19659       -3.53828
H         -3.98327      -11.13278       -2.20429
H         -3.29348      -12.22250       -0.37619
H         -2.28982      -13.98574        3.23588
H         -3.16021      -11.84933        3.98940
H         -4.48419      -12.94373        3.63395
H         -3.55610      -10.79126        1.88150
H         -4.83812      -10.71366        2.87598
H         -4.01390      -13.74638        0.71603
H         -4.32916      -14.73594        2.10865
H         -2.07190      -15.00538        0.27558
H         -3.35511      -15.99577        0.43009
H         -0.72878      -12.41983        4.58956
H          0.91545      -10.49806        4.90683
H          3.09578      -10.37566        3.50956
H          2.60954      -10.72089        1.17062
H          1.43444      -10.53353       -0.91202
H         -0.23760      -10.15439       -2.63215
H          1.37279      -12.94323        5.91400
H          4.00224      -11.63567        4.96346
H          4.03947      -14.69144        4.04231
H          4.97323      -17.01625        4.13407
H          5.77159      -18.03803        6.18997
H          5.14197      -14.30625        9.51657
H          5.39271      -16.61345        9.66660
H          7.35790      -18.20833        7.90133
H          7.59783      -17.70180       10.77939
H          5.38232      -23.20537        8.85022
H          7.07925      -22.66519       13.52170
