95

C        -10.91472        2.06221        4.84547
N        -10.28911        1.78839        3.63526
C        -10.47240        0.57881        2.86296
C        -10.97675        0.85750        1.45511
C         -9.37614        2.79775        3.27577
O         -8.64232        2.87651        2.31285
C         -9.50773        3.75628        4.39061
C        -10.47507        3.22983        5.31308
C        -10.60681        4.18558        6.42388
O        -11.32320        4.07516        7.39667
N         -9.71704        5.21824        6.05408
C         -9.54691        6.39729        6.88230
C         -8.45919        6.23607        7.93229
C         -9.05676        4.92153        4.85777
C         -8.09996        5.78875        4.23390
C         -7.06006        5.34552        3.50777
C         -6.12271        6.21176        2.88424
S         -6.53140        7.78838        2.36502
C         -4.93098        8.13796        1.84292
C         -4.11234        7.03407        2.01137
C         -4.80858        5.92513        2.57184
C         -2.71084        7.00546        1.71490
N         -1.57602        6.98163        1.47135
C         -4.70122        9.46191        1.38610
C         -3.78370        9.77373        0.46119
C         -3.56739       11.11705        0.08895
S         -3.03206       11.60806       -1.46340
C         -3.08623       13.31953       -1.09745
C         -3.40713       13.42038        0.22548
C         -3.66896       12.22156        0.85160
O         -3.98590       12.24810        2.17706
C         -3.91267       13.60223        2.40096
N         -4.19687       13.99800        3.75046
O         -4.09923       15.20650        4.00048
O         -4.52145       13.11503        4.55592
C         -3.56887       14.36395        1.27661
C         -2.72143       14.33062       -2.07495
S         -2.02990       15.79562       -1.50114
C         -1.77173       16.39224       -3.06684
C         -2.21456       15.55223       -4.07372
C         -2.08902       15.85622       -5.51382
O         -2.47009       15.12437       -6.41500
O         -1.48184       17.03070       -5.83068
C         -2.78682       14.34952       -3.47169
S         -3.49804       13.05326       -4.46995
C         -2.00081       12.37857       -5.03638
C         -1.96426       11.33606       -5.87830
C         -0.71048       10.75458       -6.32697
C         -0.55469        9.71786       -7.16629
C          0.68009        8.98856       -7.55454
C          1.94133        9.48422       -7.62425
C          3.04564        8.71974       -8.09725
N          3.95438        8.09171       -8.47723
C          2.26155       10.82991       -7.27971
N          2.52899       11.92097       -6.98773
C          0.23333        7.64239       -8.03436
C         -1.16037        7.66431       -8.17010
C         -1.70819        8.95236       -7.74573
O         -2.86787        9.28300       -7.87604
C         -1.91598        6.59592       -8.62374
C         -1.24659        5.42852       -8.98602
C          0.16749        5.35467       -8.84552
C          0.89452        6.46045       -8.34477
C          0.81823        4.17363       -9.23253
C          0.09869        3.10003       -9.76340
C         -1.28475        3.17990       -9.89521
C         -1.95643        4.33446       -9.49852
H        -11.63453        1.39273        5.29252
H        -11.17586       -0.07964        3.38442
H         -9.50404        0.06908        2.80956
H        -11.93323        1.38886        1.48023
H        -11.11245       -0.07966        0.90739
H        -10.27043        1.47256        0.88830
H        -10.49791        6.58204        7.39481
H         -9.35192        7.27517        6.25837
H         -8.54179        5.27807        8.45542
H         -8.53392        7.03754        8.67530
H         -7.46396        6.29005        7.47994
H         -8.26243        6.85314        4.37320
H         -6.87737        4.27970        3.39140
H         -4.34817        4.96735        2.79095
H         -5.32872       10.23902        1.82179
H         -3.20048        9.01116       -0.04897
H         -3.44804       15.43789        1.25952
H         -1.29253       17.35573       -3.13726
H         -1.22133       17.59266       -5.08730
H         -1.07207       12.82796       -4.69948
H         -2.89956       10.90378       -6.22624
H          0.16121       11.20989       -5.86528
H         -2.99626        6.68828       -8.69784
H          1.96758        6.35356       -8.22219
H          1.89927        4.08395       -9.14418
H          0.62154        2.20145      -10.08130
H         -1.84246        2.34574      -10.31342
H         -3.03832        4.37880       -9.60866
