70

C          1.92963       -5.11567        4.85153
S          0.30289       -4.86941        4.44524
C          0.42601       -5.76150        2.94243
C          1.71889       -6.26122        2.78701
C          2.55704       -5.87085        3.90352
N          3.86300       -6.20000        4.02205
C          4.29142       -6.93811        2.97871
N          3.60372       -7.35323        1.88387
C          2.28111       -7.02220        1.74132
C          1.67026       -7.47077        0.53517
N          1.23323       -7.86949       -0.46601
C         -0.79681       -5.83473        2.16007
S         -1.37444       -7.28128        1.46238
C         -2.75014       -6.52483        0.74661
C         -2.87013       -5.23016        1.22275
C         -1.74158       -4.83166        2.00389
C         -4.00163       -4.38048        0.98351
N         -4.91246       -3.69000        0.78090
C         -3.56964       -7.31729       -0.10972
C         -4.29126       -6.79458       -1.11430
C         -5.16237       -7.59026       -1.93156
N         -5.06697       -7.67657       -3.32432
C         -4.00962       -7.08813       -4.13292
C         -4.44123       -6.71246       -5.54559
C         -6.00702       -8.59652       -3.83560
O         -6.17675       -9.01131       -4.96334
C         -6.77693       -8.98273       -2.64385
C         -6.18531       -8.33896       -1.50881
C         -6.93360       -8.75797       -0.31305
O         -6.71227       -8.44583        0.83890
N         -7.92989       -9.60171       -0.85249
C         -8.88363      -10.28957       -0.00785
C         -8.35842      -11.64103        0.45060
C         -7.81880       -9.71267       -2.24144
C         -8.69479      -10.51457       -3.05556
C         -9.02096      -10.19914       -4.31776
C         -9.89582      -10.98535       -5.10772
C        -10.62116      -11.58174       -5.85917
C        -11.50730      -12.27821       -6.88816
C        -12.15395      -12.80435       -7.75073
C        -12.85287      -13.43624       -8.82029
S        -12.06861      -14.50386       -9.91622
C        -13.51008      -14.78341      -10.80909
C        -14.56620      -14.07619      -10.27643
C        -14.18427      -13.30086       -9.13480
N        -15.07411      -12.52902       -8.45923
C        -16.31766      -12.60090       -9.00635
N        -16.76641      -13.30959      -10.08622
C        -15.87041      -14.08054      -10.76625
C        -16.30028      -14.84035      -11.89366
N        -16.60971      -15.47026      -12.81934
H          2.35303       -4.70598        5.75786
H          5.33595       -7.23996        3.01627
H         -1.65223       -3.84732        2.45242
H         -3.58397       -8.39377        0.05842
H         -4.26765       -5.73655       -1.35958
H         -3.18142       -7.80382       -4.17311
H         -3.64953       -6.17764       -3.64230
H         -4.72152       -7.59025       -6.13422
H         -3.62057       -6.22585       -6.08015
H         -5.29780       -6.03100       -5.52393
H         -9.83385      -10.40201       -0.53978
H         -9.07777       -9.66676        0.87313
H         -8.13978      -12.29132       -0.40248
H         -9.09782      -12.14236        1.08231
H         -7.43419      -11.52931        1.02749
H         -9.11359      -11.41044       -2.60517
H         -8.62096       -9.31173       -4.80103
H        -13.48487      -15.44849      -11.66178
H        -17.07661      -12.00277       -8.50519
