118

C         -4.38480       -0.93959       -1.81655
O         -4.55364       -0.34275       -2.85617
C         -4.87749       -2.27896       -1.48833
C         -4.20939       -2.78510       -0.36062
C         -4.61451       -4.01160        0.15188
C         -5.66770       -4.68998       -0.48016
C         -6.31753       -4.16029       -1.59600
C         -5.91897       -2.93892       -2.11383
F         -6.56831       -2.39418       -3.14831
F         -7.34803       -4.81505       -2.14431
F         -6.07153       -5.86343        0.02648
C         -3.21312       -1.76615        0.08910
C         -2.11982       -1.98295        0.86155
C         -1.82221       -3.25706        1.41777
N         -1.61634       -4.30411        1.87172
C         -1.16676       -0.95349        1.12316
N         -0.40774       -0.10292        1.33707
C         -3.57606       -0.52082       -0.62421
C         -3.48405        0.75589       -0.21836
C         -4.13605        1.83315       -0.88480
S         -3.27476        2.87371       -1.96228
C         -4.62527        3.92604       -2.22389
C         -5.70233        3.48654       -1.49426
C         -5.40693        2.30982       -0.80045
C         -6.56777        1.88745       -0.08933
C         -7.64973        2.77988       -0.20546
C         -8.94443        2.65287        0.45207
O         -9.44320        1.59649        0.82163
O         -9.49180        3.88357        0.67155
C        -10.74482        3.88741        1.35368
S         -7.37434        4.13858       -1.28629
C         -4.54135        5.09464       -3.06873
C         -3.90382        5.20694       -4.28485
C         -3.88066        6.54769       -4.85017
C         -3.31696        7.05665       -6.05732
C         -2.64890        6.10557       -7.01761
C         -1.84682        4.99151       -6.78369
C         -1.38511        4.34024       -7.97165
C         -1.78274        4.99352       -9.11372
S         -2.89174        6.23566       -8.73239
C         -1.43263        4.70526      -10.53924
Cl        -0.42720        2.92066       -7.92332
C         -3.35554        8.45822       -6.31223
C         -3.96671        9.36338       -5.42621
C         -4.61089        8.84046       -4.26610
C         -4.54553        7.44544       -3.99412
S         -5.24110        6.58079       -2.65897
C         -5.31073        9.76731       -3.30812
C         -5.39718        9.73612       -1.91918
C         -6.14224       10.81410       -1.35086
C         -6.56240       11.71245       -2.30251
S         -6.27027       11.09816       -3.87210
C         -7.22545       13.04130       -2.12937
Cl        -6.40739       10.94290        0.33628
C         -3.77116       10.73331       -5.88897
C         -3.12326       10.85928       -7.09525
S         -2.67864        9.32252       -7.65313
C         -2.81567       12.07577       -7.82434
C         -3.40805       13.32129       -7.71401
C         -2.86169       14.31767       -8.61860
C         -1.90199       13.74715       -9.44742
S         -1.55784       12.13089       -8.98345
C         -1.33685       14.45537      -10.51565
O         -0.46389       13.76458      -11.35082
C          0.71413       14.48460      -11.70993
C         -1.75106       15.77458      -10.78190
C         -2.54939       16.42110       -9.82953
C         -3.16272       15.69669       -8.77709
O         -4.07754       16.18896       -7.84913
C         -4.54615       17.52477       -7.94298
S         -2.51016       18.11332      -10.17282
C         -2.01356       17.89630      -11.79258
C         -1.57352       16.60335      -11.94927
C         -1.93674       18.97707      -12.71451
C         -2.83541       19.97106      -12.80304
C         -2.36609       21.26833      -13.39257
O         -1.47428       21.43054      -14.19562
C         -3.14535       22.30478      -12.68774
C         -4.10545       21.70471      -11.84512
C         -4.10629       20.24516      -12.12532
C         -5.16444       19.40308      -12.02144
C         -6.39631       19.80494      -11.41914
N         -7.37420       20.14316      -10.91084
C         -5.15331       18.09325      -12.59461
N         -5.15990       17.03759      -13.06765
C         -4.80767       22.49386      -10.94634
C         -4.58943       23.87566      -10.96654
C         -3.68404       24.46234      -11.85645
C         -2.93925       23.67007      -12.71873
F         -2.03833       24.22311      -13.53884
F         -3.51932       25.79204      -11.85736
F         -5.26587       24.64569      -10.10385
H         -4.18494       -4.46628        1.03655
H         -2.99857        1.01843        0.71674
H         -6.63205        0.99345        0.52084
H        -11.02790        4.93075        1.52327
H        -10.66501        3.39160        2.32599
H        -11.51300        3.41637        0.73435
H         -3.44410        4.34372       -4.74593
H         -1.57968        4.63493       -5.79811
H         -0.39600        4.35995      -10.63316
H         -1.52747        5.59395      -11.17355
H         -2.08670        3.92556      -10.94156
H         -4.94178        8.97292       -1.30266
H         -7.66043       13.15433       -1.13092
H         -8.03083       13.18750       -2.85572
H         -6.49570       13.84959       -2.26088
H         -4.09034       11.60954       -5.34289
H         -4.22633       13.53736       -7.03582
H          1.02361       15.21906      -10.95770
H          0.56458       14.96638      -12.67969
H          1.52943       13.76653      -11.83867
H         -5.35865       17.65413       -7.22153
H         -4.96815       17.74648       -8.92845
H         -3.75753       18.22818       -7.65853
H         -1.14901       16.24565      -12.87900
H         -1.02032       19.03718      -13.30363
H         -5.50362       22.09201      -10.21690
