144

C         -8.02379       -2.77787        1.89764
C         -8.40159       -3.91119        1.25265
C         -7.95407       -5.18954        1.64949
N         -7.57860       -6.23789        1.98332
C         -9.31485       -3.87453        0.16002
N        -10.02976       -3.83941       -0.73969
C         -7.20263       -2.66908        3.13993
C         -7.46166       -1.42783        3.73264
C         -6.78537       -0.91568        4.83148
C         -5.78432       -1.72651        5.40235
C         -5.54080       -2.99349        4.84982
C         -6.23428       -3.48290        3.70986
S         -4.30756       -3.82215        5.72774
C         -4.07388       -2.51257        6.79249
C         -4.90753       -1.45900        6.50570
C         -8.47832       -0.70749        2.97230
O         -9.17616        0.19085        3.39400
C         -8.53135       -1.41074        1.64198
C         -8.70656       -0.78797        0.46708
C         -8.82249        0.62780        0.29573
C         -9.55443        1.31413       -0.64513
C         -9.50193        2.76359       -0.55916
C        -10.21006        3.79797       -1.25417
C        -11.34248        3.44871       -2.23594
C        -11.92211        2.24180       -2.63021
C        -12.98452        2.34485       -3.59443
C        -13.24998        3.64183       -3.93223
S        -12.21855        4.66657       -3.10656
C        -14.26253        4.23781       -4.84482
Cl       -13.80436        0.97547       -4.20392
C         -9.83339        5.15794       -0.99122
C         -8.81350        5.52126       -0.09070
C         -8.17160        4.48608        0.64689
C         -8.52517        3.13453        0.38887
S         -7.85732        1.73378        1.13788
C         -7.11789        4.81896        1.68113
C         -5.95628        4.14995        2.07036
C         -5.18852        4.82982        3.06832
C         -5.75570        6.02742        3.43097
S         -7.29586        6.20060        2.71641
C         -5.23524        7.07565        4.36015
Cl        -3.72233        4.19628        3.68902
C         -8.60871        6.97235       -0.11717
C         -9.50255        7.66441       -0.90020
S        -10.50781        6.59605       -1.66304
C         -9.71264        9.07894       -1.04763
C         -9.52664        9.98823       -0.04567
C         -9.80212       11.35856       -0.39110
C        -10.28525       11.42953       -1.70260
S        -10.33854        9.85241       -2.42917
C        -10.66046       12.65419       -2.30739
O        -11.19101       12.57096       -3.59658
C        -10.91022       13.63121       -4.50265
C        -10.58150       13.85773       -1.56175
C        -10.08885       13.78787       -0.25580
C         -9.68026       12.56939        0.33797
O         -9.15922       12.68095        1.62879
C         -8.74020       11.50573        2.30326
S        -10.06449       15.36304        0.48856
C        -10.66280       16.14432       -0.89695
C        -10.93742       15.21753       -1.87062
C        -10.86796       17.56838       -1.03908
C        -10.80597       18.31628       -2.19958
C        -11.12863       19.72898       -2.06258
C        -11.28557       20.80598       -3.00887
C        -11.18109       20.56063       -4.51449
C        -10.98849       19.40495       -5.27035
C        -10.92427       19.59772       -6.69195
C        -11.07595       20.91166       -7.04261
S        -11.23075       21.86454       -5.66248
C        -11.10692       21.57540       -8.37677
Cl       -10.68351       18.29545       -7.77445
C        -11.51292       22.12108       -2.48922
C        -11.36227       22.42182       -1.12536
C        -11.30514       21.34718       -0.19721
C        -11.25171       20.01804       -0.68593
S        -11.29348       18.55585        0.24701
C        -11.31213       21.60383        1.29059
C        -11.86436       20.87579        2.34497
C        -11.62782       21.43356        3.63956
C        -10.92169       22.60832        3.57344
S        -10.47499       22.95155        1.97321
C        -10.47284       23.50863        4.67399
Cl       -12.16868       20.67686        5.07620
C        -11.20300       23.85378       -0.98076
C        -11.54287       24.60749       -2.07851
S        -12.09242       23.56997       -3.28061
C        -11.51898       26.01258       -2.29804
C        -11.77609       26.91167       -1.33951
C        -12.17093       26.78027        0.06204
C        -13.20747       26.05708        0.55130
C        -13.57952       26.10177        1.92182
N        -13.86997       26.14918        3.04242
C        -14.07214       25.29030       -0.28829
N        -14.80182       24.67084       -0.94088
C        -11.42867       27.83703        0.78872
C        -11.03257       28.80276       -0.14355
C        -11.29491       28.32069       -1.51862
O        -11.07583       28.91014       -2.55359
C        -10.38330       29.97759        0.20690
C        -10.06397       30.16453        1.57376
C        -10.38092       29.15057        2.49139
C        -11.06448       27.96985        2.11945
S         -9.82763       29.54375        4.07759
C         -9.23325       31.05841        3.57629
C         -9.41885       31.26672        2.23006
H         -7.00185        0.08178        5.20475
H         -5.96702       -4.45357        3.30819
H         -3.33422       -2.57300        7.57895
H         -4.90123       -0.53061        7.06519
H         -8.67385       -1.35308       -0.46301
H        -10.12656        0.74794       -1.35690
H        -11.64792        1.27105       -2.26823
H        -14.35193        3.65654       -5.76525
H        -13.99794        5.26370       -5.13367
H        -15.23711        4.27882       -4.34846
H         -5.62842        3.20403        1.66033
H         -5.26869        6.72195        5.39521
H         -5.81661        8.00232        4.30013
H         -4.19708        7.33285        4.11872
H         -7.84836        7.48979        0.44975
H         -9.20721        9.61654        0.91370
H        -11.27908       13.35350       -5.49401
H         -9.83981       13.85017       -4.57111
H        -11.48884       14.51870       -4.26801
H         -8.25408       11.77361        3.24357
H         -7.97846       10.96869        1.72805
H         -9.60876       10.88536        2.55462
H        -11.38316       15.56344       -2.78459
H        -10.52248       17.83516       -3.11890
H        -10.88789       18.41432       -4.87210
H        -10.65476       20.95102       -9.15115
H        -10.55490       22.52302       -8.35820
H        -12.13985       21.79495       -8.66945
H        -12.41385       19.95099        2.22998
H        -11.29011       23.72454        5.36963
H        -10.10555       24.46896        4.29422
H         -9.65749       23.03446        5.22903
H        -10.85145       24.34446       -0.09063
H        -11.17461       26.35740       -3.27411
H        -10.10960       30.71044       -0.54686
H        -11.26690       27.20759        2.86470
H         -8.77054       31.72405        4.29204
H         -9.10136       32.17210        1.72668
