146

C         -0.40758        1.01970        0.51300
O         -0.84999       -0.15436        0.02720
C         -0.11288       -1.17334        0.57857
C          0.85340       -0.57524        1.41289
C          0.64729        0.83719        1.37386
C          1.36244        1.94714        2.04450
F          0.87418        3.16554        1.67791
F          1.25301        1.88800        3.39606
F          2.68469        1.96101        1.74778
O          1.80030       -1.32261        2.02705
C          2.26777       -0.83142        3.27298
C         -0.43836       -2.52154        0.25862
C         -0.16179       -3.55188        1.07053
C         -0.70420       -4.85828        0.83944
C         -1.33904       -5.41905       -0.24970
C         -1.81917       -6.77517       -0.05057
C         -2.46130       -7.68718       -0.93047
C         -2.61249       -7.36135       -2.37908
C         -3.69836       -7.55635       -3.22880
C         -3.44399       -7.18004       -4.58021
C         -2.19218       -6.63244       -4.74167
S         -1.28715       -6.74108       -3.29410
C         -1.58815       -6.01475       -5.95992
Cl        -4.61196       -7.38549       -5.81573
C         -2.92349       -8.93380       -0.44384
C         -2.79940       -9.30092        0.90377
C         -2.15953       -8.38162        1.77600
C         -1.62898       -7.16914        1.27922
S         -0.63495       -6.00636        2.09946
C         -2.03364       -8.73416        3.21918
C         -1.67949       -9.93503        3.81463
C         -1.70937       -9.89267        5.24135
C         -2.01530       -8.63873        5.72033
S         -2.46753       -7.59752        4.44681
C         -2.00139       -8.15432        7.13495
Cl        -1.35882      -11.26837        6.19922
C         -3.36717      -10.62180        1.13088
C         -3.81550      -11.25089       -0.01077
S         -3.67698      -10.19847       -1.33723
C         -4.32502      -12.59348       -0.19194
C         -4.41386      -13.26113       -1.39133
C         -4.91806      -14.61106       -1.36039
C         -5.07204      -15.61759       -2.37922
C         -4.53455      -15.41773       -3.80432
C         -4.66394      -16.18498       -4.96607
C         -3.99610      -15.68244       -6.12579
C         -3.37105      -14.49136       -5.87826
S         -3.51478      -14.08300       -4.24128
C         -2.62248      -13.59403       -6.80421
Cl        -4.02432      -16.51244       -7.62216
C         -5.73639      -16.83422       -2.02224
C         -6.25605      -17.06080       -0.73367
C         -6.02081      -16.08270        0.26653
C         -5.34270      -14.88602       -0.04805
S         -4.87537      -13.59995        1.04483
C         -6.51634      -16.30154        1.65563
C         -7.17291      -15.42495        2.50921
C         -7.49675      -15.99497        3.77424
C         -7.15906      -17.32623        3.84548
S         -6.23550      -17.79262        2.48364
C         -7.47107      -18.30513        4.92821
Cl        -8.26634      -15.09558        5.01062
C         -6.98361      -18.32257       -0.68187
C         -6.90577      -19.07429       -1.82766
S         -6.02136      -18.23886       -2.99084
C         -7.42988      -20.39756       -2.06759
C         -7.55975      -21.41994       -1.15733
C         -8.05610      -22.66291       -1.71751
C         -8.19911      -23.95915       -1.15960
C         -7.63061      -24.25376        0.18581
C         -8.15619      -25.00046        1.23188
C         -7.30439      -25.07182        2.37009
C         -6.17663      -24.29881        2.22287
S         -6.04249      -23.72115        0.62023
C         -5.13304      -23.97821        3.23946
Cl        -7.71414      -25.98331        3.75906
C         -8.87519      -24.97365       -1.87755
C         -9.43875      -24.72940       -3.13916
C         -9.25576      -23.44312       -3.71745
C         -8.50756      -22.45641       -3.02813
S         -7.94402      -20.91848       -3.59846
C         -9.85322      -23.14973       -5.05335
C         -9.96333      -23.94732       -6.18480
C        -10.59210      -23.29585       -7.28855
C        -10.86707      -21.97406       -7.02303
S        -10.65821      -21.64561       -5.35966
C        -11.33790      -20.89690       -7.94264
Cl       -10.88888      -24.09873       -8.77045
C        -10.14145      -25.90958       -3.60387
C        -10.02438      -27.01568       -2.78785
S         -9.14850      -26.61646       -1.40597
C        -10.62186      -28.30782       -3.03597
O        -11.70439      -28.37099       -3.87103
C        -12.15079      -29.66272       -4.01507
C        -11.31405      -30.45169       -3.22833
C        -10.33827      -29.59956       -2.60837
C         -9.28789      -30.12273       -1.69876
F         -8.27817      -29.25939       -1.44306
F         -9.80503      -30.48961       -0.49959
F         -8.68179      -31.23067       -2.21585
O        -11.30428      -31.78999       -3.00156
C        -12.41499      -32.54708       -3.44399
C        -13.25180      -29.95576       -4.86746
C        -14.24309      -29.07563       -5.03508
H         -0.93522        1.89776        0.15749
H          2.93694       -1.57736        3.70392
H          1.43812       -0.67660        3.97705
H          2.85929        0.08119        3.15378
H         -1.04959       -2.64994       -0.62786
H          0.41709       -3.40466        1.97436
H         -1.47087       -4.87399       -1.17385
H         -4.64349       -7.97749       -2.90968
H         -1.92968       -6.51518       -6.87193
H         -0.49485       -6.06574       -5.94861
H         -1.87822       -4.95957       -6.02692
H         -1.41493      -10.82488        3.25939
H         -2.58101       -8.82192        7.78064
H         -2.41865       -7.14740        7.23520
H         -0.97322       -8.12560        7.51173
H         -3.38202      -11.11420        2.09334
H         -4.09353      -12.75174       -2.28078
H         -5.21239      -17.10636       -5.04904
H         -2.25595      -14.13579       -7.68123
H         -1.75301      -13.14603       -6.31151
H         -3.27191      -12.78384       -7.15477
H         -7.41568      -14.40239        2.24803
H         -6.98156      -18.01906        5.86374
H         -7.15927      -19.32369        4.67557
H         -8.55428      -18.33356        5.10589
H         -7.52330      -18.67624        0.18704
H         -7.26233      -21.29960       -0.12343
H         -9.11917      -25.49294        1.19423
H         -5.60726      -23.63098        4.16558
H         -4.45827      -23.18234        2.90744
H         -4.53445      -24.86330        3.47408
H         -9.59902      -24.96496       -6.23925
H        -11.09702      -21.13246       -8.98524
H        -10.84725      -19.94246       -7.71705
H        -12.41989      -20.75829       -7.86455
H        -10.70362      -25.95762       -4.52843
H        -12.30633      -33.55902       -3.04000
H        -12.40847      -32.64348       -4.53275
H        -13.36169      -32.14561       -3.06990
H        -13.28860      -30.89862       -5.40175
H        -14.25914      -28.11712       -4.51961
H        -15.08286      -29.29978       -5.68420
