120

C          1.31574        2.06935        2.80685
C          0.47111        2.19249        3.85423
C          0.93828        2.57760        5.14424
N          1.33468        2.88406        6.19226
C         -0.88332        1.75890        3.76558
N         -1.97892        1.37514        3.70326
C          2.78602        2.11009        2.88578
C          3.27527        1.01629        2.15252
C          4.62618        0.76581        2.00237
C          5.51837        1.75338        2.44792
C          5.02081        2.94492        3.06112
C          3.65041        3.08683        3.33977
C          5.90594        4.00063        3.31682
C          7.26094        3.88584        3.00504
C          7.75829        2.69635        2.47999
C          6.89485        1.63274        2.21112
C          2.16214        0.42843        1.35433
O          2.19409       -0.56076        0.65676
C          1.03224        1.41697        1.53552
C          0.36845        1.86502        0.45269
C         -0.24042        3.21940        0.31023
C         -1.56929        3.41180        0.69644
C         -2.16027        4.67655        0.60031
C         -1.43607        5.77832        0.12075
C         -0.10690        5.59378       -0.30947
C          0.49901        4.30050       -0.22558
N          1.77988        4.11872       -0.64397
C          2.46145        5.18534       -1.14123
C          1.88452        6.44941       -1.17410
N          0.60221        6.64771       -0.77569
C          2.60971        7.66344       -1.67273
C          3.87476        4.94658       -1.59224
C         -2.09918        7.10537        0.06847
N         -2.15014        8.01496        1.14464
C         -1.63809        7.86677        2.48397
C         -0.23328        8.41975        2.63372
C         -2.79182        9.21863        0.79222
O         -2.96872       10.23025        1.43993
C         -3.23367        8.94881       -0.57165
C         -2.77007        7.64297       -0.96735
C         -3.25476        7.44008       -2.35408
O         -3.12083        6.44537       -3.03721
N         -3.95048        8.64538       -2.64321
C         -4.62808        8.86526       -3.91007
C         -3.75177        9.54828       -4.95106
C         -3.93496        9.51026       -1.55312
C         -4.57249       10.79435       -1.50737
C         -5.50587       11.13219       -0.59815
C         -6.10705       12.43926       -0.46414
C         -5.85787       13.49630       -1.26536
C         -6.66879       14.62887       -0.83232
C         -7.41559       14.15290        0.33966
C         -7.07517       12.86762        0.53978
C         -8.32311       14.85675        1.16310
N         -9.07450       15.42455        1.84428
C         -6.69887       15.82803       -1.44983
C         -7.55748       16.94337       -1.06573
C         -7.37839       17.93801       -1.95472
C         -6.36353       17.52984       -2.91312
C         -5.94786       16.27567       -2.63390
C         -4.96121       15.61139       -3.40836
N         -4.15196       15.04949       -4.02250
C         -8.11245       19.17200       -1.89513
C         -8.92648       19.65495       -2.84494
C         -9.63453       20.94982       -2.89788
C        -10.06807       21.69084       -1.84952
C        -10.83039       22.87560       -2.01177
N        -11.44661       23.85080       -2.14742
C         -9.85666       21.31057       -0.48970
N         -9.67703       21.00617        0.61033
C         -9.95185       21.19229       -4.33517
C         -9.72692       20.00774       -5.04740
C         -9.15450       18.98012       -4.17097
O         -8.91402       17.83783       -4.50248
C         -9.95446       19.87206       -6.40808
C        -10.40659       20.99062       -7.11352
C        -10.60227       22.22244       -6.42828
C        -10.36473       22.31315       -5.04103
C        -11.03174       23.34256       -7.15356
C        -11.27420       23.25541       -8.52543
C        -11.08959       22.04756       -9.19181
C        -10.65645       20.92111       -8.49173
H          4.96555       -0.10150        1.44363
H          3.27025        3.99477        3.79946
H          5.54080        4.94288        3.72078
H          7.92769        4.72897        3.16851
H          8.81783        2.60480        2.25382
H          7.30449        0.72309        1.77634
H          0.46608        1.31890       -0.48660
H         -2.16140        2.57539        1.06483
H         -3.19855        4.79418        0.90545
H          3.68825        7.60059       -1.49913
H          2.25546        8.55428       -1.14333
H          2.42879        7.79742       -2.74330
H          4.07657        3.87832       -1.71873
H          4.57675        5.34251       -0.85095
H          4.06733        5.43042       -2.55650
H         -1.71030        6.82546        2.80738
H         -2.29178        8.44800        3.14989
H          0.47754        7.86061        2.02051
H          0.08452        8.36122        3.67930
H         -0.18815        9.47129        2.32804
H         -5.54905        9.43800       -3.75081
H         -4.92415        7.88673       -4.30448
H         -3.54914       10.59018       -4.68335
H         -4.25302        9.54514       -5.92579
H         -2.79167        9.03494       -5.06392
H         -4.20268       11.51442       -2.23146
H         -5.85034       10.39629        0.12739
H         -5.17893       13.48166       -2.09701
H         -7.44162       12.22985        1.33153
H         -8.26083       16.98188       -0.25039
H         -6.02762       18.14670       -3.73005
H         -7.92645       19.71438       -0.97276
H         -9.76294       18.92262       -6.90035
H        -10.49674       23.27659       -4.55907
H        -11.18636       24.29824       -6.65554
H        -11.60967       24.13301       -9.07213
H        -11.28139       21.98233      -10.26018
H        -10.51521       19.98843       -9.03432
