92

C          8.69378       -0.96482        5.39813
S          8.54637       -2.61623        5.72723
C          6.85935       -2.65460        5.29823
C          6.42857       -1.37132        4.95116
C          7.50040       -0.41214        5.01426
C          5.08324       -0.97263        4.55307
O          4.30379       -1.67225        3.91556
C          6.15333       -3.89653        5.43771
C          6.74846       -5.07914        5.18803
C          6.15816       -6.37939        5.40194
C          6.65525       -7.32560        6.24221
N          7.86193       -7.19968        7.03904
O          8.43162       -8.25793        7.34835
O          8.24744       -6.07470        7.37997
C          5.83274       -8.50803        6.26845
C          4.81568       -8.33408        5.41310
C          4.95408       -7.02848        4.75998
C          4.16360       -6.54198        3.76749
C          4.35563       -5.23218        3.14160
C          3.33940       -4.99548        2.30744
C          2.46573       -6.13807        2.32412
N          1.24765       -6.14027        1.54705
O          0.84943       -7.20530        1.05741
O          0.69402       -5.04220        1.39026
C          2.93240       -7.13259        3.11751
C          2.33158       -8.44256        3.28633
C          2.95005       -9.58889        2.95352
C          2.41323      -10.90121        3.18201
N          2.27234      -11.87690        2.19612
C          2.55530      -11.71656        0.78145
C          3.97640      -12.12448        0.42510
C          1.82682      -13.10662        2.73485
O          1.61621      -14.16935        2.19029
C          1.71574      -12.79890        4.17223
C          2.07203      -11.42340        4.36398
C          1.99020      -11.12627        5.80182
O          2.21820      -10.06931        6.35368
N          1.61008      -12.36010        6.35332
C          1.48553      -12.54972        7.78628
C          0.07683      -12.27394        8.28015
C          1.44134      -13.32718        5.36871
C          1.05009      -14.66703        5.65461
C          1.79823      -15.72912        5.31497
C          1.37602      -17.05233        5.59400
S          2.38916      -18.36768        5.15760
C          1.28125      -19.54701        5.74401
C          0.17339      -18.92674        6.29322
C          0.22019      -17.51348        6.19208
C         -0.92636      -19.60832        6.91906
N         -1.81566      -20.15236        7.40178
C          1.63972      -20.92111        5.61996
C          0.70377      -21.87220        5.47734
C          1.02281      -23.25502        5.41985
S         -0.24563      -24.39619        5.26998
C          0.82037      -25.75399        5.27709
C          2.13631      -25.32755        5.39525
C          2.23746      -23.90390        5.47515
C          3.31678      -26.17877        5.39648
O          4.42034      -25.78509        5.03361
C          0.21566      -27.03377        5.10427
C          0.71009      -28.16381        5.62220
H          9.65036       -0.47720        5.51422
H          7.39923        0.63727        4.76430
H          4.81485        0.06378        4.83601
H          5.11051       -3.86446        5.75187
H          7.78874       -5.12160        4.85928
H          6.00377       -9.35833        6.91314
H          4.03462       -9.05256        5.27108
H          5.14935       -4.52500        3.27901
H          3.20511       -4.11434        1.69795
H          1.31840       -8.46084        3.68820
H          3.95685       -9.57403        2.54200
H          2.36592      -10.67945        0.48445
H          1.85870      -12.34857        0.21843
H          4.71155      -11.51262        0.95692
H          4.14656      -12.00458       -0.64957
H          4.16358      -13.17223        0.68332
H          2.17498      -11.85652        8.28323
H          1.80212      -13.56287        8.05650
H         -0.28063      -11.29787        7.93585
H          0.05123      -12.28295        9.37400
H         -0.62081      -13.03447        7.91695
H          0.09938      -14.76916        6.16816
H          2.75165      -15.58410        4.81013
H         -0.57142      -16.86859        6.55426
H          2.69849      -21.16640        5.63806
H         -0.34858      -21.61620        5.40599
H          3.18746      -23.38936        5.57141
H          3.20774      -27.20159        5.76984
H         -0.71607      -27.09039        4.54226
H          1.58789      -28.20837        6.25157
H          0.20648      -29.10864        5.45260
