80

C          2.66614        3.67444       -0.48229
O          3.40444        4.27583       -1.24105
C          1.41265        4.27489       -0.05593
C          0.77171        3.38254        0.77748
C         -0.44495        3.68779        1.35526
C         -0.99921        4.94077        1.06276
C         -0.33669        5.84811        0.21083
C          0.89050        5.51688       -0.36238
C          1.62178        2.19555        0.89730
O          1.30617        1.23752        1.57900
N          2.74008        2.44299        0.13335
C          3.81709        1.56521        0.05511
C          4.01947        0.31299        0.64792
C          5.30747       -0.19447        0.34276
C          5.99972        0.68001       -0.45844
S          5.18557        2.04536       -0.88705
C          7.28506        0.17632       -0.70285
C          7.42503       -1.02678       -0.05725
C          6.16881       -1.34761        0.62833
C          5.87705       -2.45459        1.33683
C          6.83250       -3.48997        1.52938
N          7.60995       -4.33653        1.68732
C          4.59796       -2.65146        1.92183
N          3.55367       -2.82117        2.39867
C          8.71911       -1.55867       -0.25191
C          9.49760       -0.71987       -1.05504
S          8.61031        0.69904       -1.53904
C         10.87223       -0.90587       -1.46636
C         11.89096       -1.57642       -0.82137
C         13.14680       -1.51926       -1.54182
N         14.29996       -2.08333       -1.08291
C         14.12496       -2.71218        0.11744
C         15.33846       -3.35556        0.67742
O         16.42327       -3.34105        0.10973
C         15.22055       -4.03719        1.98032
C         14.06541       -4.08968        2.64341
C         12.83465       -3.47336        2.11260
O         11.79811       -3.55745        2.75866
C         12.91330       -2.76918        0.81068
N         11.74207       -2.20346        0.38086
C         13.05149       -0.81709       -2.72534
S         11.44471       -0.25667       -2.95251
C         14.05038       -0.52828       -3.72854
C         14.09889        0.59403       -4.56033
C         15.16581        0.50408       -5.47290
C         15.89744       -0.64622       -5.28344
S         15.34002       -1.63776       -4.07717
C         16.91515       -0.70356       -6.25556
C         16.79935        0.39144       -7.08279
C         15.72094        1.25360       -6.59620
C         15.35898        2.47363       -7.04309
C         16.01189        3.08018       -8.14816
N         16.54593        3.57716       -9.05055
C         14.34182        3.23154       -6.40493
N         13.51954        3.85156       -5.85926
C         17.70793        0.32081       -8.15891
C         18.51428       -0.81369       -8.06422
S         18.15548       -1.74031       -6.63322
C         19.53411       -1.27281       -8.93932
C         19.32349       -2.14018       -9.94963
C         17.99087       -2.68271      -10.34024
O         16.91704       -2.15686      -10.09304
O         18.15713       -3.84118      -11.03019
C         16.97900       -4.50633      -11.50061
C         20.45768       -2.58288      -10.69216
N         21.40187       -2.92213      -11.27548
H         -0.94654        2.98705        2.01492
H         -1.95420        5.22459        1.50164
H         -0.78380        6.81792        0.00021
H          1.42223        6.20225       -1.01572
H          3.28241       -0.17166        1.27826
H          9.09438       -2.49058        0.15445
H         16.12573       -4.49303        2.36773
H         13.97695       -4.58975        3.60213
H         13.37628        1.39956       -4.50398
H         17.76475        1.01082       -8.99111
H         20.54621       -0.92109       -8.73495
H         16.98315       -4.48178      -12.59387
H         16.04599       -4.07094      -11.13174
H         17.03193       -5.54994      -11.17778
