99

C          0.39813        4.11608        4.19874
C          1.57501        4.25532        3.54216
C          2.83472        4.22360        4.20087
N          3.86410        4.20338        4.73571
C          1.65494        4.39233        2.12678
N          1.71665        4.50956        0.97175
C          0.21847        3.83309        5.65793
C         -1.08972        3.38734        5.86055
C         -1.61946        3.04550        7.09905
C         -0.77842        3.16009        8.22534
C          0.53850        3.60795        8.03922
C          1.05512        3.95764        6.76286
S          1.38804        3.66733        9.54451
C          0.03893        3.12605       10.40261
C         -1.05283        2.89607        9.61017
Br         0.03558        2.86746       12.25782
C         -1.84340        3.38295        4.60263
O         -2.94988        2.90734        4.45934
C         -0.95285        4.05126        3.59265
C         -1.41455        4.61578        2.46398
C         -2.78380        4.57445        2.08948
C         -3.43989        3.64530        1.28289
C         -4.80403        3.97275        1.14201
C         -5.12629        5.11016        1.84836
S         -3.85723        5.82870        2.64062
C         -6.49602        5.38458        1.66787
C         -7.03237        4.44431        0.82255
C         -6.00341        3.46835        0.47123
C         -6.13813        2.34766       -0.26189
C         -5.04048        1.47746       -0.48947
N         -4.14830        0.75743       -0.66609
C         -7.38126        1.96398       -0.83443
N         -8.38878        1.64356       -1.31314
C         -8.38781        4.71500        0.54384
C         -8.85869        5.82844        1.25613
S         -7.57870        6.49277        2.24742
C        -10.22492        6.41815        1.29637
C        -10.52352        7.78873        1.50190
C        -11.87626        8.29103        1.60161
N        -12.07896        9.59929        1.89341
C        -11.01152       10.41172        2.03751
C         -9.73628        9.95100        1.87450
N         -9.49317        8.65724        1.60338
C        -13.00556        7.46157        1.40220
C        -12.74368        6.08250        1.14177
C        -11.34050        5.55120        1.11884
N        -11.30496        4.21865        0.92732
S        -12.85109        3.68949        0.72948
N        -13.64567        5.11899        0.87782
C        -14.40894        7.95252        1.42772
C        -14.93578        9.19300        1.03584
C        -16.32894        9.26861        1.26789
C        -16.81275        8.08484        1.76836
S        -15.67255        6.93607        2.08310
C        -18.19261        8.20459        2.00053
C        -18.58977        9.47932        1.66883
C        -17.42833       10.23411        1.19223
C        -17.37432       11.53517        0.84964
C        -16.16109       12.14900        0.43558
N        -15.17883       12.65853        0.08458
C        -18.52744       12.36709        0.90643
N        -19.47316       13.03915        0.95532
C        -19.95290        9.68577        1.97108
C        -20.49589        8.55803        2.58462
S        -19.37649        7.22934        2.63045
C        -21.80278        8.34179        3.06084
C        -22.26250        8.59047        4.29339
C        -21.80570        9.12626        5.59866
C        -20.58697        9.55971        6.01331
C        -20.28927        9.83595        7.38287
N        -20.02151       10.05396        8.49091
C        -19.45012        9.81405        5.20002
N        -18.46329       10.13708        4.68099
C        -23.01572        9.09115        6.50263
C        -24.07738        8.48810        5.83085
C        -23.68968        8.13951        4.46837
O        -24.41534        7.60049        3.65659
C        -25.35789        8.32072        6.35290
C        -25.61201        8.83504        7.64120
C        -24.56900        9.47909        8.31850
C        -23.27160        9.61943        7.76505
S        -25.09021       10.07195        9.85426
C        -26.65584        9.49238        9.61422
C        -26.82069        8.84798        8.41718
Br       -28.03168        9.72317       10.86313
H         -2.65246        2.72021        7.18962
H          2.07435        4.32166        6.70069
H         -2.01037        2.55246        9.98336
H         -0.77923        5.19193        1.80061
H         -2.93092        2.79158        0.85248
H         -9.01371        4.13274       -0.12127
H        -11.21707       11.44829        2.27875
H         -8.86770       10.59375        1.96021
H        -14.31754        9.98921        0.63847
H        -20.51429       10.60253        1.83898
H        -22.46769        7.88622        2.32385
H        -26.13847        7.84318        5.76632
H        -22.54390       10.17348        8.34325
H        -27.75755        8.41490        8.08843
