59

C          2.72215       -4.65297        0.33547
S          4.13563       -4.25760       -0.53412
C          3.84745       -2.55964       -0.38922
C          2.65203       -2.32719        0.28263
C          2.01484       -3.53268        0.70807
C          0.77933       -3.61324        1.42719
N         -0.22289       -3.68665        2.00799
C          2.10935       -1.01647        0.50363
N          1.68924        0.05103        0.67443
C          4.80792       -1.67228       -0.96340
C          5.18389       -0.54990       -0.33134
C          6.14645        0.38971       -0.82106
C          6.92443        1.20226       -0.10220
C          7.69710        1.99315       -0.98990
C          7.33141        1.61912       -2.36346
O          7.76820        2.07944       -3.39772
N          6.37170        0.62798       -2.16413
C          8.45377        2.75927       -0.22451
O          8.26123        2.54543        1.17261
C          7.28632        1.56149        1.26709
O          6.83570        1.07539        2.28662
C          9.39813        3.71549       -0.66400
S         10.79338        4.04916        0.29322
C         11.44792        5.16064       -0.84112
C         10.57325        5.34994       -1.89823
C          9.42705        4.50509       -1.79915
O          8.43435        4.48699       -2.71282
O         10.88383        6.20420       -2.91219
C          9.75488        6.80513       -3.53865
C         12.71863        5.80146       -0.58831
S         12.96455        7.47974       -0.90143
C         14.59462        7.48506       -0.32813
C         14.93412        6.22377        0.09740
C         13.87826        5.31986       -0.06708
C         14.30399        4.03751        0.38716
C         15.61179        4.02579        0.89213
C         16.33013        2.84766        1.47276
S         16.45225        5.55981        0.83397
C         15.42447        8.64052       -0.31865
C         16.86077        8.73971       -0.46782
C         17.28162       10.00448       -0.40428
C         16.06119       10.79001       -0.20992
O         16.00514       11.99956       -0.10839
C         14.91728        9.87293       -0.16271
H          2.47351       -5.69055        0.52082
H          5.27976       -1.96453       -1.89992
H          4.78839       -0.30933        0.65598
H          5.88053        0.19118       -2.93200
H          8.43721        3.63639       -3.20683
H         10.10602        7.67910       -4.09436
H          9.01658        7.15289       -2.80651
H          9.30225        6.12261       -4.26484
H         13.69378        3.14254        0.37056
H         17.35617        3.08825        1.76993
H         16.37434        2.03323        0.74260
H         15.80000        2.48723        2.36053
H         17.51320        7.89399       -0.62582
H         18.27311       10.40883       -0.48248
H         13.90370       10.20356       -0.02351
