78

C          3.07029       -6.06786        2.20945
C          4.16822       -6.16592        3.13118
C          4.09151       -5.20674        4.05318
C          2.82872       -4.50470        3.76106
O          2.30017       -3.70818        4.51386
C          2.27195       -5.02007        2.48360
C          1.08216       -4.61909        1.78918
S          0.16640       -5.86484        1.03039
C         -1.14550       -4.88390        0.42944
C         -0.87863       -3.57146        0.81949
C          0.42196       -3.41009        1.57495
C          0.86822       -2.12048        1.98612
C          2.15685       -1.77641        2.49139
N          3.19073       -1.37239        2.83737
C         -0.03242       -1.06272        1.72573
C         -1.25435       -1.22030        1.03649
C         -1.70642       -2.45451        0.53014
C         -2.90164       -2.48423       -0.24505
N         -3.86652       -2.44982       -0.88857
C         -2.23742       -5.51661       -0.33088
C         -2.22508       -6.83345       -0.55654
C         -3.06949       -7.86610       -1.28526
C         -3.79381       -8.75190       -1.91035
C         -4.58798       -9.71371       -2.58621
S         -4.34611      -11.38505       -2.39237
C         -5.60921      -11.75121       -3.48041
C         -6.21949      -10.62156       -3.97428
C         -5.62157       -9.43353       -3.45336
C         -5.94111      -13.09645       -3.78835
C         -6.05930      -14.28353       -3.87798
C         -6.02046      -15.69387       -3.78305
S         -6.47263      -16.72303       -5.06173
C         -6.08094      -18.15740       -4.17061
C         -5.63523      -17.81736       -2.91033
C         -5.59126      -16.40603       -2.68652
C         -5.17808      -15.82145       -1.48507
C         -4.76468      -16.76736       -0.50450
C         -4.32260      -16.19509        0.81997
C         -4.77307      -18.19141       -0.75155
O         -4.26014      -19.01741        0.23351
C         -3.77577      -20.28139       -0.25030
C         -5.27879      -18.75504       -1.94491
C         -6.32258      -19.40101       -4.81230
C         -5.54795      -20.48925       -4.65449
C         -5.87982      -21.75411       -5.24548
S         -7.25977      -21.91497       -6.26940
C         -7.02536      -23.58108       -6.55440
C         -5.90242      -24.03135       -5.87420
C         -5.25232      -22.98964       -5.13365
N         -4.07912      -23.21315       -4.33781
O         -4.18387      -23.01945       -3.12026
O         -3.06905      -23.59117       -4.94021
C         -5.47184      -25.38728       -5.86853
N         -5.11949      -26.49944       -5.85150
C         -7.99133      -24.21700       -7.38551
C         -7.70684      -25.26008       -8.16749
H          2.95636       -6.78193        1.40481
H          4.95327       -6.90766        3.06447
H          4.75015       -4.98225        4.87260
H          0.24116       -0.05278        2.04194
H         -1.85550       -0.32511        0.86270
H         -3.05935       -4.93797       -0.72941
H         -1.40234       -7.41831       -0.15314
H         -7.04691      -10.63875       -4.67285
H         -5.93715       -8.42846       -3.70764
H         -5.16757      -14.75511       -1.29840
H         -4.38865      -15.09812        0.81030
H         -3.28087      -16.45064        1.02750
H         -4.97156      -16.54162        1.62919
H         -3.23648      -20.78870        0.55296
H         -3.07963      -20.14381       -1.08837
H         -4.60059      -20.94308       -0.54295
H         -5.37531      -19.81667       -2.09176
H         -7.20437      -19.41727       -5.44452
H         -4.64659      -20.44081       -4.04801
H         -9.00027      -23.80331       -7.41655
H         -6.72116      -25.70719       -8.24617
H         -8.48273      -25.69496       -8.79083
