85

C         -4.41063       -7.15720       -0.39504
C         -3.13876       -6.83211       -0.61547
C         -2.63947       -5.49959       -0.83030
C         -1.31285       -5.44983       -1.01087
C         -0.66220       -6.74978       -0.96403
S         -1.86311       -8.01433       -0.67149
C          0.65396       -6.98593       -1.11549
C          1.68879       -5.98949       -1.32176
C          2.92297       -6.49964       -1.42536
C          2.96301       -7.94059       -1.31007
S          1.36628       -8.59719       -1.08307
C          4.09386       -8.65866       -1.35466
C          4.21493      -10.10205       -1.20227
C          5.36163      -10.79817       -1.22271
C          5.46601      -12.22084       -0.99788
C          6.73100      -12.66324       -0.92043
C          7.72605      -11.61406       -1.07394
S          6.93240      -10.09329       -1.47248
C          9.05749      -11.71429       -0.89922
C          9.81337      -12.90630       -0.56796
C         11.11644      -12.67886       -0.33781
C         11.48813      -11.28425       -0.43810
S         10.14143      -10.32454       -0.98563
C         12.69775      -10.78058       -0.14338
C         13.04319       -9.38548       -0.13620
C         13.95908       -8.72870       -0.85189
C         13.88452       -7.34586       -0.52083
C         12.84008       -7.17214        0.50122
O         12.45352       -6.15190        1.02715
N         12.38517       -8.48045        0.67882
C         14.77640       -6.73673       -1.28286
O         15.47440       -7.61519       -2.15617
C         14.98606       -8.88929       -1.87719
O         15.34672       -9.93118       -2.39150
C         15.10214       -5.33835       -1.36965
C         15.55058       -4.56700       -0.36696
C         15.84008       -3.15697       -0.47839
C         16.29556       -2.60670        0.65736
C         16.42974       -3.54860        1.75552
S         15.90473       -5.15041        1.23676
C         16.90692       -3.29219        2.98864
C         17.35034       -2.01162        3.50692
C         17.85294       -2.06971        4.74982
C         17.86944       -3.40391        5.30721
S         17.11745       -4.53766        4.21540
C         18.41106       -3.73120        6.49185
C         18.52847       -5.08341        7.01491
C         19.01116       -5.46808        8.20460
C         19.11266       -6.85552        8.58897
C         19.52763       -7.03423        9.84823
C         19.78058       -5.79473       10.56550
S         19.56865       -4.41942        9.48039
C         20.10108       -5.69923       11.87009
C         20.22895       -6.81432       12.79256
C         20.53554       -6.45644       14.04608
C         20.68292       -5.03352       14.20875
S         20.40191       -4.17933       12.71787
C         20.99646       -4.42175       15.35168
H         -5.19300       -6.40823       -0.36509
H         -4.70892       -8.19014       -0.23355
H         -3.28383       -4.63325       -0.84137
H         -0.78002       -4.52599       -1.18621
H          1.49190       -4.92884       -1.36986
H          3.81351       -5.90089       -1.56595
H          5.02258       -8.10890       -1.49383
H          3.29239      -10.64972       -1.02157
H          4.59596      -12.85271       -0.86941
H          6.98262      -13.69491       -0.72115
H          9.36627      -13.88872       -0.50899
H         11.82376      -13.45184       -0.07065
H         13.50075      -11.45584        0.14384
H         11.61420       -8.70772        1.29224
H         14.97238       -4.90430       -2.35782
H         15.69647       -2.60336       -1.39625
H         16.56123       -1.56265        0.74102
H         17.28572       -1.09230        2.94292
H         18.24010       -1.21310        5.28478
H         18.83642       -2.93759        7.10226
H         18.19916       -5.87702        6.34587
H         18.87346       -7.66730        7.91521
H         19.65451       -8.01346       10.28478
H         20.07561       -7.84390       12.50421
H         20.65770       -7.15539       14.86132
H         21.16726       -4.97986       16.26576
H         21.09328       -3.34047       15.40650
