84

C          3.70397        3.14604       -5.36188
C          4.45069        2.19206       -4.80237
C          5.85169        2.30216       -4.49959
C          6.34554        1.22265       -3.87782
C          5.35527        0.18777       -3.61434
S          3.80605        0.64678       -4.32754
C          5.55311       -0.92511       -2.88075
C          6.80376       -1.32064       -2.25840
C          6.69575       -2.37374       -1.43804
C          5.34894       -2.88662       -1.33122
S          4.28455       -2.07737       -2.45628
C          4.99208       -3.81600       -0.43366
C          3.65055       -4.24131       -0.24122
O          3.11930       -5.31112       -0.91231
C          1.81600       -5.51192       -0.53113
C          1.52250       -4.55900        0.42912
C          2.67722       -3.74479        0.62099
C          2.78691       -2.59802        1.56242
F          4.00349       -1.99550        1.54393
F          1.86542       -1.64074        1.29989
F          2.58009       -2.99901        2.84496
C          0.96727       -6.52069       -1.06413
C          1.40779       -7.38278       -1.99250
C          0.58494       -8.40332       -2.61540
C         -0.02227       -9.43723       -2.01229
C         -0.76116      -10.46751       -2.70444
C         -1.12270      -11.49352       -1.91796
C         -0.68536      -11.35497       -0.53858
S          0.04588       -9.76588       -0.30360
C         -0.73196      -12.29449        0.42528
C         -1.24193      -13.64806        0.31130
C         -0.91850      -14.43703        1.34906
C         -0.10995      -13.77270        2.35171
S         -0.05275      -12.05750        2.03166
C          0.51915      -14.40871        3.35396
C          1.45596      -13.78622        4.24070
O          2.24075      -12.72791        3.85021
C          3.10999      -12.36227        4.83483
C          2.87531      -13.20253        5.90685
C          1.82210      -14.10158        5.54814
C          1.26818      -15.14228        6.44363
F          0.28352      -15.88053        5.87164
F          2.22736      -16.01752        6.84353
F          0.74438      -14.60036        7.57399
C          4.02587      -11.29189        4.66033
C          5.19785      -11.26153        5.30924
C          6.15878      -10.18678        5.16014
C          7.37278      -10.13389        5.72906
C          8.29745       -9.04084        5.55060
C          9.50438       -9.26859        6.08562
C          9.63380      -10.57476        6.70984
S          8.06642      -11.37626        6.74279
C         10.77775      -11.14023        7.13930
C         12.10053      -10.54617        7.05157
C         13.09413      -11.37523        7.39907
C         12.63189      -12.67714        7.80233
S         10.89454      -12.77138        7.80954
C         13.41656      -13.70970        8.11823
H          4.12051        4.11032       -5.63061
H          2.64689        2.99211       -5.55640
H          6.43425        3.18045       -4.74028
H          7.37659        1.15235       -3.56362
H          7.73741       -0.80144       -2.41856
H          7.52102       -2.78063       -0.87018
H          5.73370       -4.24279        0.23355
H          0.57201       -4.45504        0.93726
H         -0.05825       -6.56673       -0.70928
H          2.43044       -7.32314       -2.36216
H          0.53771       -8.32079       -3.69956
H         -0.96756      -10.42164       -3.76532
H         -1.65183      -12.36124       -2.28531
H         -1.80334      -13.99753       -0.54382
H         -1.18474      -15.48323        1.41526
H          0.38471      -15.48092        3.46315
H          3.39356      -13.16992        6.85724
H          3.74974      -10.51860        3.94912
H          5.46667      -12.08025        5.97243
H          5.85119       -9.36316        4.51748
H          8.03443       -8.13507        5.02165
H         10.31349       -8.55562        6.02869
H         12.27488       -9.53755        6.70762
H         14.14121      -11.11021        7.36805
H         14.49720      -13.63170        8.08624
H         12.99764      -14.67037        8.40304
