82

C        -17.23798       17.06114       19.75532
C        -16.38782       17.89582       19.01801
C        -16.12600       17.70506       17.64006
C        -16.68393       16.65971       16.85975
C        -17.56531       15.78201       17.56463
C        -17.83838       15.99760       19.04244
N        -18.68071       15.09596       19.56943
S        -19.09403       14.06464       18.34006
N        -18.22931       14.71318       17.08450
C        -16.38653       16.46141       15.43367
S        -14.84360       16.90657       14.80721
C        -15.21670       16.35598       13.23918
C        -16.50001       15.86926       13.16282
C        -17.17077       15.92766       14.42364
C        -14.27718       16.38333       12.16719
C        -13.44340       16.38395       11.30080
C        -12.42171       16.34787       10.31553
C        -11.91107       17.47279        9.79390
C        -10.86781       17.40330        8.83420
S         -9.22659       17.43779        9.34083
C         -8.64791       17.27030        7.74671
C         -9.67474       17.24903        6.82736
C        -10.95278       17.32146        7.45571
C         -7.26556       17.13096        7.42915
C         -6.11061       16.90489        7.19558
C         -4.77528       16.48659        6.95441
C         -3.72220       17.08060        7.53663
C         -2.35262       16.59402        7.42755
C         -1.26564       17.16383        8.01272
O          0.00408       16.57052        7.96935
C          0.08558       15.40055        7.30287
C         -1.02765       14.81895        6.67334
C         -0.73633       13.63611        6.04559
S          0.92709       13.23647        6.24648
C          1.22911       14.65812        7.17026
O         -2.24903       15.38992        6.70577
C         -1.24186       18.37527        8.80165
C         -1.59360       19.59047        8.36088
N         -1.55908       20.77843        9.06095
C         -1.66646       20.89045       10.52240
N         -2.22733       22.18369       10.95900
C         -2.92861       22.57037        9.73994
N         -3.18846       23.99679        9.78279
C         -3.25217       24.49943        8.40409
C         -3.56928       23.34460        7.32948
N         -2.59851       22.27206        7.20529
C         -1.99163       22.06918        8.53523
N         -3.68501       24.05327        6.06372
C         -4.36365       25.28541        6.51683
N         -4.18663       25.52431        7.95665
C         -4.51983       26.69211        8.60047
C         -4.35492       27.02196        9.88396
H        -17.42892       17.21625       20.81045
H        -15.90449       18.73040       19.52725
H        -15.45270       18.42133       17.16646
H        -16.94089       15.46868       12.25777
H        -18.18444       15.57497       14.57563
H        -12.04580       15.37156       10.01902
H        -12.27203       18.45181       10.09345
H         -9.52401       17.15379        5.76007
H        -11.89676       17.29646        6.92040
H         -4.65103       15.61292        6.32289
H         -3.89374       17.94566        8.17304
H         -1.39809       12.98847        5.48834
H          2.21472       14.86944        7.55947
H         -0.82556       18.26232        9.79838
H         -1.94276       19.71622        7.33567
H         -0.68401       20.74104       10.98439
H         -2.32961       20.10488       10.90631
H         -1.45166       22.83565       11.05424
H         -3.88236       22.02343        9.69728
H         -4.11114       24.13129       10.18779
H         -2.24403       24.88407        8.18394
H         -4.54672       22.89982        7.57115
H         -1.86190       22.59702        6.58286
H         -1.08950       22.70262        8.54911
H         -4.30407       23.53078        5.44989
H         -5.43736       25.20265        6.30582
H         -3.97547       26.13018        5.93682
H         -4.99501       27.41658        7.94008
H         -3.90521       26.35079       10.60545
H         -4.67967       27.98732       10.25529
