107

C          1.25798        0.72829       -0.99717
C          1.39548        0.70861        0.36336
C          0.98848       -0.53924        0.97735
C          1.05519       -0.71859        2.44391
C          0.80938        0.37747        3.29625
C          0.89483        0.26283        4.68905
C          1.19401       -0.97218        5.25169
C          1.45710       -2.06772        4.42703
C          1.42631       -1.92623        3.03537
O          1.70839       -3.24177        5.08628
C          2.49319       -4.18832        4.36995
O          0.73676        1.43027        5.38606
C          0.21975        1.30685        6.70673
C          0.59447       -1.48007        0.00147
S          0.52117       -0.68207       -1.55574
C          0.13289       -2.92027        0.02814
C         -0.58154       -3.39051        1.13332
C         -0.96674       -4.72709        1.22981
C         -0.85242       -5.59861        0.14513
C         -0.30770       -5.08292       -1.05388
C          0.33973       -3.81874       -1.05696
N          1.12854       -3.50227       -2.11999
C          1.12314       -4.28669       -3.22382
C          0.27344       -5.36811       -3.30544
N         -0.39529       -5.78405       -2.21144
C          0.06330       -6.15681       -4.55897
C          2.03606       -3.89333       -4.34226
C         -1.27674       -7.03617        0.27909
C         -2.24886       -7.67950        1.05397
C         -3.16914       -7.12196        2.10256
C         -4.48547       -6.61986        1.53991
C         -2.37376       -9.06629        0.68297
C         -1.49599       -9.47832       -0.29207
S         -0.35877       -8.24630       -0.58064
C         -1.54906      -10.70600       -1.00564
C         -0.49110      -11.33611       -1.53673
C         -0.61489      -12.54912       -2.38092
C          0.36832      -13.52282       -2.21506
C          0.35556      -14.66455       -3.00225
C         -0.57500      -14.81710       -4.03678
C         -1.62227      -13.87357       -4.17839
C         -1.63017      -12.72855       -3.34149
N         -2.62078      -11.81411       -3.45116
C         -3.62202      -12.00849       -4.33221
C         -3.62851      -13.12932       -5.14520
N         -2.62668      -14.05129       -5.08201
C         -4.73881      -13.38834       -6.11859
C         -4.71963      -10.99072       -4.28150
C         -0.52018      -16.02245       -4.91579
C          0.53808      -16.69680       -5.41182
C          0.54853      -17.94271       -6.22964
C         -0.41225      -18.38598       -7.07877
C         -0.24037      -19.52871       -7.91973
N         -0.10811      -20.45145       -8.59961
C         -1.65305      -17.71533       -7.27913
N         -2.67318      -17.20070       -7.47175
C          1.93110      -18.51437       -6.13153
C          2.76175      -17.55771       -5.55384
C          1.99079      -16.37659       -5.14943
O          2.49802      -15.36440       -4.71335
C          4.13599      -17.71065       -5.39255
C          4.72573      -18.90513       -5.86151
C          3.89191      -19.89930       -6.38896
C          2.48711      -19.73530       -6.50452
S          4.80245      -21.28534       -6.86934
C          6.28360      -20.55300       -6.45317
C          6.10482      -19.30218       -5.91122
H          1.51392        1.52650       -1.67944
H          1.78671        1.55980        0.90768
H          0.55157        1.35282        2.88783
H          1.28406       -1.10639        6.32407
H          1.67675       -2.76157        2.39514
H          2.63582       -5.06046        5.01322
H          3.47669       -3.76609        4.13916
H          1.98909       -4.53759        3.46380
H          0.17106        2.31058        7.14122
H          0.86354        0.70913        7.35853
H         -0.79613        0.90105        6.67639
H         -0.81869       -2.73741        1.96863
H         -1.35900       -5.05274        2.18254
H         -0.08488       -5.49052       -5.41557
H         -0.83693       -6.77606       -4.47538
H          0.91685       -6.81192       -4.75049
H          2.52957       -4.77408       -4.76756
H          2.82533       -3.22743       -3.97778
H          1.47912       -3.37717       -5.12871
H         -2.69322       -6.34323        2.69404
H         -3.38360       -7.91711        2.82987
H         -4.33018       -5.82525        0.80411
H         -5.10728       -6.22407        2.34925
H         -5.04093       -7.43007        1.05525
H         -3.13321       -9.72673        1.08588
H         -2.54669      -11.11474       -1.14654
H          0.52068      -10.97189       -1.37862
H          1.15310      -13.40470       -1.47096
H          1.11044      -15.41963       -2.80329
H         -4.83893      -12.55053       -6.81662
H         -5.68662      -13.52669       -5.58765
H         -4.54338      -14.28936       -6.70736
H         -5.24220      -10.88476       -5.23478
H         -4.30610      -10.00755       -4.02857
H         -5.44380      -11.26276       -3.50639
H         -1.52952      -16.35583       -5.14740
H          4.73475      -16.92076       -4.94716
H          1.90462      -20.55729       -6.90291
H          7.21638      -21.07511       -6.61991
H          6.92934      -18.68170       -5.58006
