95

C         -2.22991       -1.24705       -1.98873
O         -2.76867       -2.06909       -2.69726
C         -0.94838       -0.58374       -2.26778
C         -0.81525        0.57317       -1.48068
C          0.36814        1.29557       -1.55999
C          1.38312        0.84301       -2.41994
C          1.21663       -0.32512       -3.18172
C          0.03615       -1.05431       -3.11991
Br         2.63318       -0.93977       -4.27338
C         -2.04545        0.70469       -0.64732
C         -2.52232        1.84325       -0.09364
C         -1.84734        3.09799       -0.20980
N         -1.29636        4.10893       -0.30939
C         -3.77915        1.88596        0.57093
N         -4.80372        1.91832        1.12223
C         -2.73396       -0.60417       -0.73124
C         -3.45723       -1.25941        0.19465
C         -3.88815       -2.66724        0.09947
C         -3.08239       -3.69357        0.62927
C         -3.49077       -5.02139        0.49604
C         -4.73162       -5.32203       -0.10377
C         -5.54447       -4.31509       -0.60114
C         -5.11018       -2.98813       -0.51486
C         -4.92808       -6.75390       -0.12927
C         -3.79999       -7.39481        0.42285
C         -2.79017       -6.32802        0.93037
C         -1.45354       -6.56590        0.16275
C         -0.25795       -5.66936        0.46748
C         -2.65472       -6.41722        2.47522
C         -3.94428       -6.16392        3.27225
C         -3.69619       -8.79027        0.41420
C         -4.74693       -9.53652       -0.13907
C         -5.89463       -8.88517       -0.62722
C         -5.99009       -7.49186       -0.62539
C         -4.67410      -10.96138       -0.29218
C         -4.72186      -12.13963       -0.54530
C         -4.87413      -13.50844       -0.93894
S         -4.13206      -14.82655       -0.14652
C         -4.83880      -15.97574       -1.21404
C         -5.62399      -15.36082       -2.16267
C         -5.64336      -13.93735       -2.00205
C         -4.60062      -17.38060       -1.07615
C         -4.20848      -18.56680       -0.70304
C         -3.75133      -19.94963       -0.26807
C         -3.01864      -20.71777       -1.08523
C         -2.52561      -22.10505       -0.71995
C         -1.16057      -22.02987       -0.06637
N         -1.01467      -21.83722        1.24849
S          0.64136      -21.87769        1.50960
N          1.18828      -22.11036       -0.06111
C          0.07852      -22.18515       -0.80327
C          0.12260      -22.39999       -2.30868
C         -1.16293      -23.10372       -2.69661
C         -2.40146      -22.96669       -1.95761
N         -3.42482      -23.68601       -2.42899
S         -2.80268      -24.49506       -3.76153
N         -1.22058      -23.95390       -3.72255
C          0.29119      -21.09060       -3.06591
C          0.35851      -20.87804       -4.39088
C          0.51583      -19.48079       -4.61734
C          0.54949      -18.78955       -3.32668
O          0.67069      -17.60534       -3.11074
N          0.40205      -19.84870       -2.42923
C          0.57483      -19.31913       -5.92388
O          0.46821      -20.51256       -6.65898
C          0.33442      -21.52644       -5.71140
O          0.23363      -22.71221       -5.95211
H          0.55770        2.18506       -0.96664
H          2.31618        1.40231       -2.47889
H         -0.11092       -1.97307       -3.67833
H         -3.70385       -0.80542        1.15057
H         -2.15289       -3.44949        1.13118
H         -6.49249       -4.54606       -1.07501
H         -5.73189       -2.20683       -0.94504
H         -1.64724       -6.49352       -0.91666
H         -1.11333       -7.59653        0.33291
H         -0.49602       -4.60702        0.43436
H          0.51712       -5.83591       -0.29153
H          0.18578       -5.90427        1.43901
H         -1.90887       -5.69546        2.82924
H         -2.28367       -7.41236        2.75275
H         -4.21429       -5.10253        3.26419
H         -3.80259       -6.45284        4.31935
H         -4.79664       -6.73584        2.89296
H         -2.80762       -9.28590        0.79255
H         -6.71234       -9.46823       -1.04706
H         -6.87164       -7.00729       -1.03055
H         -6.16296      -15.89478       -2.93582
H         -6.20174      -13.26244       -2.64182
H         -4.03519      -20.25871        0.73414
H         -2.77786      -20.34141       -2.07757
H         -3.22613      -22.58802       -0.02482
H          0.97624      -23.05310       -2.53571
H          0.41681      -19.68913       -1.42736
H          0.69060      -18.42405       -6.50946
