70

C         -1.15364        0.08735        0.01581
N         -0.29957        1.16125       -0.00277
C          0.99731        0.71857       -0.03332
C          0.96812       -0.66052       -0.03031
C         -0.39184       -1.05964       -0.00039
C          2.13878        1.56682       -0.05992
C          3.13285        2.24266       -0.07822
C          4.35571        2.97040       -0.08976
N          4.46693        4.33941       -0.12488
C          5.79342        4.69851       -0.10146
C          6.53860        3.53952       -0.06799
C          5.63221        2.44979       -0.05812
C          6.28181        6.03702       -0.08130
C          6.72612        7.15074       -0.01140
C          7.24656        8.47587        0.14614
C          6.60401        9.63810       -0.26700
C          7.28208       10.80598        0.18547
C          8.47841       10.45429        0.74811
S          8.76122        8.82087        0.89613
C          9.19624       11.63106        1.00143
C          8.47213       12.74585        0.61556
C          7.14265       12.30597        0.18938
C          5.96115       12.95650       -0.00276
C          4.82897       11.94304       -0.04124
N          3.88974       11.10229       -0.07316
C          5.64996       14.44428       -0.01039
N          5.39181       15.67852       -0.01673
C          9.27483       13.90950        0.72013
C         10.57998       13.57869        1.12107
S         10.71455       11.90734        1.57542
C         11.79001       14.36887        1.13514
C         13.08253       13.86473        0.97162
C         13.99908       14.90777        0.90095
C         13.44816       16.16240        1.02154
S         11.78607       16.09541        1.27424
C         14.35635       17.24452        0.79906
C         15.64070       16.88387        0.45270
Si        15.79199       15.03158        0.43753
C         17.02596       14.39214        1.65764
C         16.14641       14.26481       -1.21285
C         16.48518       17.95480        0.16251
C         15.81553       19.16691        0.31742
S         14.15739       18.90765        0.82031
C         16.23187       20.50939        0.07661
C         17.48738       20.96602        0.18451
S         17.87919       22.61404       -0.24650
C         19.59277       22.35010        0.01214
O         20.47389       23.15910       -0.20663
C         19.82034       20.99119        0.53034
C         18.68532       20.28904        0.61896
H         -2.22560        0.23171        0.03955
H         -0.57965        2.13245        0.00505
H          1.83130       -1.31358       -0.04779
H         -0.77172       -2.07347        0.00876
H          3.68957        4.98473       -0.14607
H          7.61924        3.48053       -0.03824
H          5.88586        1.39785       -0.02187
H          5.67575        9.58866       -0.82158
H          8.97911       14.90929        0.42562
H         13.31790       12.81573        0.83209
H         16.99450       14.95477        2.59561
H         18.04326       14.47396        1.25970
H         16.84855       13.33826        1.89236
H         15.39419       14.55526       -1.95299
H         16.13818       13.17196       -1.14505
H         17.12618       14.56883       -1.59250
H         17.50741       17.85886       -0.17782
H         15.45319       21.20227       -0.24284
H         20.80813       20.65243        0.79521
H         18.68251       19.27999        1.00446
