97

C          5.30120        1.39614       -4.65260
C          5.62936        2.20950       -5.70392
S          6.74409        1.41580       -6.76213
C          6.75500       -0.01489       -5.80479
C          5.93024        0.13222       -4.72225
C          5.57413       -0.73718       -3.63345
O          5.84621       -1.91436       -3.50892
C          4.72701        0.17241       -2.73948
C          4.46657        1.47276       -3.47492
C          3.61464        2.47840       -3.15884
C          3.46707        3.63323       -3.98144
N          3.34208        4.57623       -4.64747
C          2.78331        2.46277       -2.00672
N          2.11004        2.44982       -1.06230
C          4.41588       -0.16205       -1.47214
C          4.84962       -1.35389       -0.82356
S          6.28478       -1.33443        0.11850
C          6.13696       -2.99606        0.57201
C          4.93563       -3.50642        0.10082
C          4.23171       -2.58481       -0.73838
C          4.42808       -4.81056        0.42248
N          4.01544       -5.85806        0.70589
C          7.19081       -3.56911        1.35130
C          7.52422       -4.86499        1.24982
C          8.59356       -5.48798        1.97527
N          8.66447       -5.58891        3.36601
C          7.64354       -5.19631        4.31720
C          6.64408       -6.31213        4.57945
C          9.80057       -6.31900        3.77333
O         10.15890       -6.63611        4.88941
C         10.46296       -6.63857        2.49505
C          9.64997       -6.10674        1.43807
C         10.27917       -6.45811        0.15512
O          9.88579       -6.17733       -0.95619
N         11.41849       -7.18824        0.56424
C         12.33701       -7.74861       -0.41340
C         13.44350       -6.78302       -0.80243
C         11.51701       -7.25870        1.95521
C         12.56229       -7.96877        2.64920
C         13.00876       -7.66076        3.87756
C         14.04429       -8.38007        4.54421
S         15.34873       -9.07941        3.67587
C         16.12729       -9.64821        5.09131
C         15.47538       -9.20633        6.22659
C         14.20867       -8.58182        5.90939
C         13.22485       -8.19454        6.99332
C         13.56580       -8.90693        8.31140
N         12.66572       -8.34117        9.36874
O         13.03596       -7.31178        9.94497
O         11.59936       -8.93346        9.56647
C         15.03663       -8.67758        8.64969
N         15.38209       -9.21871       10.00530
O         14.83146      -10.26165       10.36334
O         16.24475       -8.59969       10.64238
C         15.94105       -9.40524        7.64495
C         17.31522      -10.41267        4.92005
C         17.29203      -11.74838        4.75274
C         16.01313      -12.57988        4.80582
O         15.03135      -12.44007        5.50791
C         16.30266      -13.62467        3.85468
C         15.55322      -14.59510        3.24894
S         16.51223      -15.45934        2.10322
C         17.93289      -14.54236        2.46961
C         17.65745      -13.62052        3.44018
C         18.37259      -12.59004        4.14517
C         19.70580      -12.50089        4.34182
C         20.61413      -13.43967        3.77840
N         21.35086      -14.20839        3.31667
C         20.26720      -11.51181        5.19615
N         20.68821      -10.69029        5.89572
H          5.31657        3.21471       -5.95187
H          7.36083       -0.86693       -6.08449
H          3.86443        0.50617       -0.82239
H          3.29682       -2.81729       -1.23618
H          7.76934       -2.91404        2.00212
H          7.03358       -5.52305        0.53404
H          7.12931       -4.29595        3.97271
H          8.13939       -4.93916        5.26042
H          6.13537       -6.61369        3.65846
H          5.88680       -5.98137        5.29732
H          7.14061       -7.19637        4.99263
H         11.76447       -8.00224       -1.31237
H         12.75894       -8.68503       -0.03675
H         13.03267       -5.86891       -1.24588
H         14.10587       -7.24714       -1.53972
H         14.04643       -6.49506        0.06476
H         12.98129       -8.82258        2.12092
H         12.57394       -6.82708        4.42656
H         12.20503       -8.45764        6.68359
H         13.25092       -7.10323        7.11689
H         13.33336       -9.97857        8.24162
H         15.27432       -7.60484        8.66932
H         15.97470      -10.48291        7.84953
H         16.96748       -9.02796        7.74324
H         18.21132       -9.83219        4.72132
H         14.50412      -14.82522        3.37994
H         18.84940      -14.74739        1.93156
