87

C         -9.80460       -7.49468        4.17790
O         -8.91019       -7.79496        4.93912
C        -10.90286       -6.58880        4.52289
C        -11.96364       -6.74428        3.61946
C        -13.08251       -5.93467        3.79113
C        -13.12262       -5.01837        4.86382
C        -12.03905       -4.89914        5.75604
C        -10.90846       -5.69524        5.58437
Br       -12.02024       -3.67810        7.21023
Br       -14.70214       -3.97078        5.03275
C        -11.59267       -7.79750        2.62454
C        -12.44129       -8.50531        1.84444
C        -13.84945       -8.25507        1.81900
N        -14.99071       -8.04439        1.80720
C        -12.01980       -9.59649        1.03565
N        -11.66380      -10.47283        0.35562
C        -10.14169       -8.05564        2.81983
C         -9.24436       -8.55068        1.94997
C         -7.84653       -8.56051        2.19801
O         -7.00940       -9.53367        1.66981
C         -5.78326       -9.24942        2.18657
C         -5.90303       -8.10639        2.95704
N         -7.18026       -7.64575        2.88572
C         -4.79283       -7.61261        3.64451
C         -3.57052       -8.26832        3.51579
C         -3.51889       -9.42281        2.74836
C         -4.59476       -9.94254        2.04395
O         -2.27056       -9.93016        2.86470
C         -1.60057       -9.01841        3.65338
N         -2.33087       -7.98348        4.03503
C         -0.19995       -9.27338        4.08904
C          0.20547      -10.63831        4.23339
C          1.46363      -10.77778        4.75661
S          2.12634      -12.34239        5.20684
C          3.71469      -11.96189        5.95738
S          2.23930       -9.26972        4.82608
C          0.78646       -8.35622        4.43116
C          0.90861       -6.86323        4.43370
C          1.68188       -6.20378        5.41632
C          2.05534       -6.71170        6.74159
O          1.40752       -7.53224        7.36413
S          3.39710       -5.82108        7.41788
C          3.18841       -4.55641        6.23846
O          3.91119       -3.57909        6.15947
C          2.11054       -4.87491        5.29565
C          1.57647       -4.01820        4.34050
C          0.70679       -4.62528        3.43859
C          0.43496       -5.99565        3.43403
C         -0.31039       -6.23641        2.20289
O         -0.54608       -7.30230        1.67872
O         -0.60501       -5.01931        1.67423
C         -0.01910       -4.00383        2.34561
O         -0.08539       -2.82105        2.08188
C          1.84085       -2.57554        4.37883
C          1.05370       -1.75326        5.09337
C          1.28576       -0.32932        5.20738
C          2.27974        0.27272        5.87679
C          2.58864        1.70900        5.57772
O          1.85418        2.55478        5.11510
C          4.02321        1.86408        5.89049
C          4.52976        0.68285        6.45999
C          3.38578       -0.23596        6.69512
C          3.30449       -1.15502        7.68678
C          2.06400       -1.74859        8.06406
N          1.05802       -2.23783        8.37562
C          4.42582       -1.54533        8.47395
N          5.34146       -1.86593        9.11071
C          5.89414        0.57556        6.68281
C          6.72203        1.67348        6.38675
C          6.18128        2.86667        5.86297
C          4.81275        2.96354        5.59872
Br         7.24349        4.38925        5.46133
Br         8.58100        1.44942        6.72083
H        -13.93156       -5.97579        3.11606
H        -10.04722       -5.62512        6.24420
H         -9.52131       -8.91909        0.97126
H         -4.89009       -6.74406        4.28388
H         -4.51284      -10.83672        1.43700
H         -0.44811      -11.48471        4.04716
H          4.19289      -12.89861        6.25839
H          3.59599      -11.33805        6.84721
H          4.36648      -11.46574        5.23507
H          2.70800       -2.20993        3.83151
H          0.16369       -2.12185        5.60241
H          0.59506        0.27911        4.61950
H          6.33925       -0.33953        7.06311
H          4.37169        3.85543        5.16242
