86

C         -4.39979       -1.04410        3.60963
N         -3.41431       -0.31941        4.25798
C         -2.60033       -0.83612        5.33918
C         -1.11529       -0.82817        5.01274
C         -3.35591        1.01475        3.79980
O         -2.61958        1.91179        4.15614
C         -4.42019        1.06163        2.76397
C         -4.99605       -0.25930        2.71541
C         -6.05088       -0.27513        1.70460
O         -6.72902       -1.22740        1.37714
N         -6.05016        1.05713        1.23827
C         -6.99615        1.46222        0.21699
C         -8.43764        1.43725        0.70986
C         -5.06143        1.83620        1.87420
C         -4.84802        3.23251        1.55952
C         -3.98346        4.07214        2.15402
C         -3.93470        5.44992        1.78354
S         -2.88361        5.91065        0.51586
C         -3.22216        7.61927        0.62030
C         -4.09985        7.81467        1.68976
C         -4.56157        6.56143        2.30916
C         -5.51719        6.53737        3.35565
C         -6.04780        5.35330        3.94685
N         -6.53020        4.42209        4.43883
C         -5.97061        7.80780        3.76551
C         -5.50277        9.01241        3.19787
C         -4.55992        9.06439        2.15302
C         -2.56968        8.52129       -0.39856
C         -1.76057        8.01727       -1.43962
C         -1.19374        8.84433       -2.42601
C         -1.42006       10.21829       -2.41949
C         -2.18155       10.74601       -1.38600
C         -2.74407        9.91165       -0.41023
C         -0.87056       11.13919       -3.41783
C         -0.66792       10.80860       -4.70204
C         -0.15596       11.73629       -5.71823
C          0.72305       12.78337       -5.41161
C          1.19924       13.62895       -6.41668
C          0.80957       13.43066       -7.74282
C         -0.04583       12.37372       -8.06044
C         -0.52360       11.53153       -7.05394
C          1.29597       14.31904       -8.79340
C          2.44119       14.07302       -9.44433
C          2.91655       14.97475      -10.49012
C          3.73480       16.05682      -10.16074
C          4.17797       16.93233      -11.15622
C          3.82001       16.73468      -12.49619
C          2.98141       15.65819      -12.81490
C          2.53502       14.78126      -11.81989
C          4.24556       17.65184      -13.56296
C          5.40060       18.33058      -13.56447
H         -4.61321       -2.07785        3.83940
H         -2.91765       -1.85896        5.57376
H         -2.78471       -0.21431        6.22208
H         -0.90518       -1.43158        4.12402
H         -0.54102       -1.23503        5.85088
H         -0.75233        0.18632        4.82120
H         -6.89418        0.75984       -0.61821
H         -6.76803        2.45424       -0.17610
H         -8.71141        0.45978        1.11947
H         -9.12223        1.65340       -0.11640
H         -8.59731        2.18288        1.49487
H         -5.46901        3.65187        0.77420
H         -3.32143        3.76290        2.95455
H         -6.71515        7.87523        4.56017
H         -5.89238        9.95534        3.58390
H         -4.25951       10.03987        1.81870
H         -1.54423        6.95576       -1.53268
H         -0.57533        8.38737       -3.19485
H         -2.37302       11.81596       -1.32822
H         -3.33067       10.43670        0.31927
H         -0.67990       12.15005       -3.06576
H         -0.92204        9.81510       -5.06235
H          1.05555       12.95244       -4.39071
H          1.87533       14.43948       -6.15573
H         -0.34813       12.19994       -9.09005
H         -1.19505       10.71932       -7.32362
H          0.67838       15.18479       -9.01564
H          3.06225       13.20950       -9.22381
H          4.02753       16.23199       -9.12842
H          4.79711       17.77698      -10.86609
H          2.67161       15.48533      -13.84319
H          1.88724       13.95074      -12.09015
H          3.56607       17.76061      -14.40538
H          6.13123       18.24312      -12.76716
H          5.64979       18.99096      -14.38903
