92

C         -5.72895       -3.69465       -2.41253
C         -6.16218       -4.03350       -3.65048
C         -5.62162       -5.13511       -4.37240
N         -5.18548       -6.04031       -4.95586
C         -7.24965       -3.36619       -4.28918
N         -8.12642       -2.81066       -4.80767
C         -4.69352       -4.41032       -1.60053
C         -4.88929       -4.06472       -0.26157
C         -4.08971       -4.48972        0.78853
C         -3.01757       -5.34927        0.47828
C         -2.81893       -5.72839       -0.85762
C         -3.64051       -5.25994       -1.91962
S         -1.47461       -6.80461       -0.99625
C         -1.14966       -6.74398        0.67608
C         -2.03401       -5.93221        1.34364
C         -6.03410       -3.16351       -0.12489
O         -6.64868       -2.96567        0.90086
C         -6.32126       -2.67514       -1.50958
C         -6.84079       -1.47272       -1.81143
C         -7.21240       -0.45627       -0.87432
C         -6.69336       -0.10531        0.37837
C         -7.33566        1.02649        0.92169
C         -8.27333        1.52828        0.05213
S         -8.47850        0.65796       -1.34358
C         -8.81658        2.70603        0.60013
C         -8.23936        2.94087        1.82739
C         -7.28170        1.87132        2.11932
C         -6.55160        1.68704        3.23781
C         -5.67514        0.57434        3.37971
N         -4.94597       -0.32180        3.49437
C         -6.62854        2.58853        4.33897
N         -6.69830        3.33068        5.22509
C         -8.73290        4.12947        2.41041
C         -9.66057        4.75607        1.57272
S         -9.91030        3.84731        0.10634
C        -10.37335        5.99991        1.76984
N        -11.22022        6.46476        0.86961
C        -11.69534        7.66282        1.29404
C        -11.24523        8.13219        2.49138
S        -10.15496        6.98087        3.18806
N        -11.69017        9.35451        2.89391
C        -12.52486        9.81321        1.97754
S        -12.79305        8.79741        0.59535
C        -13.15168       11.10608        2.11639
C        -12.63513       12.20511        2.80722
C        -13.54787       13.28180        2.79840
C        -14.70254       12.95676        2.12086
S        -14.72711       11.43648        1.46278
C        -15.62578       14.01118        2.25785
C        -15.05835       14.99807        3.02939
C        -13.68329       14.62395        3.36138
C        -12.76216       15.36530        4.00309
C        -11.44151       14.88881        4.21697
N        -10.35934       14.50556        4.38511
C        -13.05795       16.67375        4.47160
N        -13.33619       17.73564        4.84892
C        -15.97711       16.02299        3.31900
C        -17.23700       15.73796        2.78904
S        -17.19195       14.30266        1.79590
C        -18.46575       16.44402        2.90094
C        -18.86396       17.12981        3.98181
C        -18.32953       17.37756        5.32966
C        -17.80955       16.47664        6.20068
C        -17.36623       16.82907        7.50942
N        -16.98450       17.11522        8.56731
C        -17.75961       15.07755        5.93033
N        -17.72320       13.92755        5.78127
C        -18.79158       18.74361        5.71310
C        -19.81770       19.11657        4.83928
C        -19.96496       18.12459        3.76136
O        -20.76831       18.16245        2.85338
C        -20.55711       20.28493        4.96921
C        -20.25467       21.13216        6.05958
C        -19.19518       20.78663        6.90970
C        -18.42961       19.60858        6.73687
S        -18.98441       21.95784        8.15886
C        -20.29823       22.89058        7.60873
C        -20.87431       22.35657        6.48045
H         -4.28214       -4.15593        1.80461
H         -3.41403       -5.57362       -2.93286
H         -0.32556       -7.30493        1.09549
H         -1.99072       -5.76131        2.41322
H         -6.94940       -1.18172       -2.85364
H         -5.88239       -0.64469        0.84987
H         -8.43889        4.53540        3.37089
H        -11.66970       12.17438        3.30183
H        -15.78123       16.89941        3.92217
H        -19.08397       16.47940        2.00123
H        -21.34854       20.52378        4.26437
H        -17.60982       19.41513        7.41909
H        -20.58312       23.79078        8.13576
H        -21.71874       22.81397        5.97910
