99

C          1.60160       -0.75536        2.54361
C          1.20605       -0.30274        3.79655
C          0.45002        0.88140        3.67634
C          0.33030        1.27498        2.35950
S          1.05418        0.26471        1.25536
C         -0.34954        2.50892        2.31508
C         -0.66623        2.88938        3.59759
C         -0.20716        1.86634        4.53491
C         -0.34427        1.84261        5.87539
C         -1.00318        2.89064        6.58188
N         -1.52983        3.74951        7.15549
C          0.16331        0.77063        6.65659
N          0.58011       -0.10178        7.29684
C         -1.25738        4.16910        3.62939
C         -1.30259        4.74420        2.35690
S         -0.76213        3.60317        1.14304
C         -1.65384        6.11316        2.00731
S         -0.86762        6.86194        0.66954
C         -1.61681        8.39860        0.88540
C         -2.44908        8.34371        1.99105
C         -2.48898        7.02987        2.62062
C         -3.28894        6.74196        3.74008
C         -4.01948        7.85129        4.21538
S         -5.08021        7.62395        5.65257
C         -3.95913        9.13878        3.59003
O         -4.69561       10.18269        4.10834
C         -3.18941        9.44495        2.45037
C         -1.28221        9.48883        0.01853
C         -0.90443        9.31804       -1.26287
C         -0.53992       10.38493       -2.18642
C          0.11525       11.47831       -1.75311
C          0.48897       12.54551       -2.63490
C          0.24488       12.49878       -4.08106
C         -0.36151       11.48971       -4.70357
S         -0.94261       10.07220       -3.87598
C          0.75923       13.70002       -4.60811
C          1.29390       14.45677       -3.59239
C          1.83265       15.67627       -4.02469
C          1.66837       15.79776       -5.39799
S          0.87377       14.42441       -6.10793
C          1.10592       13.72998       -2.36189
C          1.51997       14.21211       -1.06835
C          0.67179       14.39967       -0.04338
C          1.07229       14.87254        1.26981
C          0.84142       14.08915        2.34256
C          1.23278       14.48262        3.67062
C          1.90612       15.76271        3.93401
C          2.19625       16.67049        3.00263
S          1.81038       16.46704        1.32155
C          2.16962       15.80409        5.31577
C          1.71076       14.65193        5.90630
C          1.89801       14.64068        7.30022
C          2.55185       15.79534        7.70263
S          2.87711       16.87486        6.38460
C          1.13849       13.81904        4.86527
C          0.55319       12.50882        5.06476
C          0.93155       11.65159        6.03109
C          0.31744       10.36506        6.25318
C          0.62731        9.44654        7.18814
C         -0.38096        8.36539        7.42062
O         -1.26732        7.99139        6.68225
C         -0.11414        7.85700        8.77326
C          1.01756        8.48253        9.32571
C          1.62272        9.35153        8.26665
C          2.93571        9.69555        8.21062
C          3.56227       10.08171        6.99100
N          4.10067       10.35256        5.99766
C          3.81653        9.58593        9.32340
N          4.52135        9.52180       10.24411
C          1.39039        8.13688       10.61938
C          0.66925        7.13888       11.30512
C         -0.44753        6.51730       10.71297
C         -0.85863        6.89299        9.43469
Br        -1.44430        5.14660       11.56809
Br         1.31442        6.65442       13.02848
H          2.19734       -1.62823        2.31146
H          1.48379       -0.81261        4.71081
H         -1.54605        4.69734        4.52705
H         -3.36349        5.77470        4.21175
H         -4.72542        6.35885        5.92721
H         -5.16052        9.82275        4.88914
H         -3.20036       10.43215        2.00840
H         -1.35136       10.48937        0.43578
H         -0.87073        8.32064       -1.69955
H          0.38600       11.58808       -0.70862
H         -0.51868       11.52102       -5.77656
H          2.30159       16.42587       -3.40037
H          1.96853       16.62131       -6.03060
H          2.57932       14.43783       -0.96520
H         -0.38928       14.18636       -0.16281
H          0.38031       13.11388        2.22118
H          2.69958       17.59297        3.27126
H          1.59260       13.86290        7.98588
H          2.85075       16.07157        8.70457
H         -0.22735       12.21887        4.36970
H          1.72716       11.95014        6.70677
H         -0.55372       10.17033        5.62423
H          2.23688        8.59525       11.12044
H         -1.71876        6.43866        8.94945
