110

C          1.81726        1.44546        9.76525
C          0.81687        2.41034        9.81175
C          0.95002        3.30440        8.73303
C          2.03903        2.99675        7.94708
S          2.90499        1.66512        8.43494
C          2.06859        3.87722        6.84729
C          0.97464        4.70292        6.91523
C          0.24380        4.45174        8.15456
C         -0.77308        5.14800        8.67333
C         -1.32385        6.29911        8.00147
N         -1.74384        7.21616        7.45809
C         -1.35075        4.83718        9.93645
N         -1.80477        4.57657       10.97560
C          0.85435        5.49933        5.76511
C          1.91415        5.27860        4.87999
S          3.06735        4.16349        5.55943
C          2.16255        5.97383        3.63067
S          1.53491        7.54566        3.47716
C          2.49435        7.97748        2.09001
C          3.37368        6.90405        1.79711
C          2.91094        5.66085        2.51254
C          3.37603        4.34830        2.21562
C          2.71022        3.01633        2.45535
F          1.48188        3.08000        3.02940
F          2.51371        2.35796        1.27178
F          3.46293        2.16991        3.20830
C          4.52700        4.32201        1.40503
C          5.06802        5.46590        0.81136
C          4.50428        6.76678        0.90359
O          5.27134        7.59599        0.10350
C          4.94443        8.94757        0.04943
C          2.22726        9.33217        1.62637
C          0.99680        9.91008        1.60826
C          0.76896       11.19352        0.99718
S          0.30097       11.14078       -0.66656
C          0.25200       12.86154       -0.86245
C          0.81079       13.45609        0.26801
C          0.83834       12.52112        1.41214
C          1.06805       12.97192        2.74101
C          0.73053       12.31398        4.04602
F          1.78610       11.68936        4.62398
F          0.30468       13.23959        4.96248
F         -0.28115       11.41330        3.96093
C          1.50747       14.32640        2.81849
C          1.60051       15.19802        1.71904
C          1.25073       14.80762        0.41459
O          1.54222       15.74667       -0.55491
C          2.27673       15.15296       -1.61465
C         -0.21061       13.30520       -2.15088
C         -0.99058       14.38615       -2.36334
C         -1.30278       14.86132       -3.69465
S         -1.59304       13.68397       -4.94627
C         -2.28069       14.80124       -6.05090
C         -2.24172       16.07922       -5.51398
C         -1.51047       16.14164       -4.21997
C         -1.20245       17.39398       -3.59609
C         -0.15289       17.79676       -2.58385
F          1.08190       17.32530       -2.89773
F          0.01962       19.16043       -2.53875
F         -0.43556       17.43869       -1.31073
C         -1.88368       18.48035       -4.20813
C         -2.63787       18.40218       -5.39331
C         -2.80842       17.22148       -6.13669
O         -3.46572       17.18583       -7.33849
C         -4.46880       18.19285       -7.48532
C         -2.76632       14.27266       -7.28999
C         -4.03212       13.83298       -7.38129
C         -4.58398       13.37797       -8.61194
C         -4.62305       12.09224       -9.15578
C         -5.35523       12.06811      -10.36726
C         -5.82902       13.31870      -10.69623
S         -5.44926       14.51606       -9.61044
C         -6.54775       13.23537      -11.90895
C         -6.52963       11.92600      -12.34902
C         -5.78007       11.11320      -11.38774
C         -5.54115        9.77601      -11.44477
C         -6.02885        8.97111      -12.50029
N         -6.41975        8.30753      -13.36042
C         -4.77622        9.11750      -10.42593
N         -4.16371        8.56658       -9.58844
C         -7.22115       11.78147      -13.57107
C         -7.73610       13.00344      -13.98745
S         -7.36747       14.29534      -12.89367
H          1.96419        0.60943       10.43554
H          0.04550        2.41252       10.57056
H          0.05311        6.19892        5.56106
H          4.99969        3.36191        1.18158
H          5.95563        5.32836        0.18711
H          5.61788        9.42529       -0.66558
H          5.10911        9.40160        1.02859
H          3.93413        9.04898       -0.34187
H          3.05755        9.93276        1.29396
H          0.09986        9.37171        1.91218
H          1.77081       14.73349        3.80002
H          1.96136       16.21257        1.89777
H          1.57466       14.70326       -2.29661
H          3.00687       14.41611       -1.26500
H          2.78625       15.91225       -2.20697
H          0.16860       12.73634       -3.00012
H         -1.42127       14.92474       -1.52275
H         -1.78357       19.47919       -3.77213
H         -3.04474       19.34927       -5.73791
H         -4.97479       18.04099       -8.44083
H         -4.04085       19.20180       -7.51629
H         -5.21105       18.11336       -6.68268
H         -2.08535       14.23663       -8.13739
H         -4.69377       13.86542       -6.52046
H         -4.15797       11.24233       -8.67023
H         -7.35608       10.87202      -14.14376
H         -8.31042       13.21167      -14.88111
