110

C          7.75239       -4.29299       -0.60232
C          8.83125       -3.47224       -0.99588
C          9.85596       -3.13497        0.02118
O         10.51845       -2.11963        0.07332
O          9.99104       -4.12223        0.92486
C          8.91412       -2.97205       -2.31711
C          9.98651       -2.12641       -2.75878
N         10.82710       -1.45329       -3.19055
C          7.94633       -3.34130       -3.26663
C          6.91225       -4.16377       -2.85493
C          6.77495       -4.60908       -1.52881
C          5.52197       -5.39178       -1.44323
C          4.69993       -5.47991       -0.37188
C          5.07237       -5.00456        0.91613
N          5.39351       -4.62211        1.96343
C          3.34694       -5.91422       -0.50127
N          2.22941       -6.20675       -0.61571
C          5.19873       -5.77337       -2.81917
C          5.88251       -4.78996       -3.71435
O          5.70610       -4.60316       -4.89779
C          4.77037       -6.93753       -3.33158
C          4.56204       -8.15860       -2.56695
C          3.34277       -8.72076       -2.55000
C          3.04801       -9.88917       -1.76238
C          4.02943      -10.46404       -0.83423
C          5.29782      -10.06854       -0.74126
S          5.97048       -8.79939       -1.72253
C          3.36406      -11.48289       -0.12650
C          2.07044      -11.58843       -0.57873
C          1.32359      -12.55590        0.11500
C          2.11411      -13.15623        1.08724
S          3.73531      -12.53623        1.11450
C          1.89141      -10.60673       -1.62918
C          0.64568      -10.39927       -2.33419
C          0.56070       -9.98548       -3.60938
C         -0.67097       -9.74990       -4.33001
C         -0.93823       -8.50137       -4.76273
C         -2.10758       -8.21092       -5.54636
C         -3.03465       -9.26796       -5.97312
C         -2.92378      -10.55360       -5.64315
S         -1.65711      -11.16926       -4.62877
C         -4.01760       -8.64254       -6.76185
C         -3.76792       -7.29259       -6.82668
C         -4.69000       -6.60179       -7.62862
C         -5.62946       -7.48902       -8.13848
S         -5.35738       -9.12635       -7.63139
C         -2.57199       -7.03130       -6.05581
C         -1.94677       -5.73691       -5.90994
C         -2.54133       -4.66862       -5.35095
C         -1.91396       -3.36414       -5.20798
C         -1.76112       -2.84218       -3.97277
C         -1.18297       -1.53937       -3.75973
C         -0.78000       -0.67371       -4.87591
C         -0.85619       -1.01608       -6.16115
S         -1.45328       -2.55706       -6.70381
C         -0.31599        0.52785       -4.30463
C         -0.40557        0.45221       -2.93525
C          0.03756        1.61587       -2.28612
C          0.46405        2.54542       -3.22595
S          0.30176        1.97668       -4.85846
C         -0.93742       -0.85065       -2.60490
C         -1.17887       -1.29292       -1.25213
C         -0.61317       -2.38778       -0.71887
C         -0.88251       -2.86829        0.61630
C         -0.69529       -2.23111        1.78053
C         -1.37344       -2.79193        2.98375
O         -1.78121       -3.91709        3.17312
C         -1.51834       -1.65837        3.90522
C         -0.87380       -0.51135        3.41318
C         -0.93770        0.64947        4.17879
C         -1.64172        0.64496        5.41534
C         -2.26776       -0.53896        5.87040
C         -2.21330       -1.70115        5.09945
C         -2.98812       -0.61093        7.09473
N         -3.65636       -0.58238        8.04410
C         -1.59223        1.90742        6.20842
O         -0.62294        2.64592        6.14039
O         -2.67370        2.22101        6.94176
C         -0.17938       -0.90338        2.14682
C          0.90538       -0.29432        1.61024
C          1.79216       -0.98901        0.73337
N          2.55139       -1.58192        0.08324
C          1.30260        1.02394        1.96198
N          1.59172        2.11782        2.21565
H          7.71167       -4.67364        0.41499
H         10.66592       -3.79682        1.55917
H          8.00736       -3.01823       -4.30422
H          4.69483       -7.05277       -4.41421
H          2.52759       -8.23883       -3.07839
H          5.97513      -10.55601       -0.04716
H          0.28332      -12.80544       -0.04904
H          1.83136      -13.92548        1.79328
H         -0.26263      -10.62302       -1.77795
H          1.45358       -9.78563       -4.19669
H         -0.26160       -7.68030       -4.54251
H         -3.64788      -11.27904       -5.99758
H         -4.68351       -5.54147       -7.84463
H         -6.46292       -7.27317       -8.79242
H         -0.92634       -5.66359       -6.27958
H         -3.54859       -4.75066       -4.94551
H         -2.08542       -3.39700       -3.10002
H         -0.53386       -0.32614       -6.93444
H          0.06109        1.79367       -1.22004
H          0.86591        3.53423       -3.04892
H         -1.85979       -0.67194       -0.67399
H          0.04642       -3.01685       -1.31754
H         -1.33304       -3.86468        0.62887
H         -0.44750        1.57121        3.86931
H         -2.69739       -2.62260        5.41993
H         -3.45666        1.64060        6.97871
