84

C          5.66032       -2.23436       -7.20549
C          4.96653       -3.37747       -7.16674
C          6.51207       -1.86228       -6.13176
C          7.16437       -1.57077       -5.16620
C          7.83029       -1.26346       -3.95003
C          9.12274       -1.55380       -3.75074
C          9.73304       -1.28701       -2.49286
S         10.47967        0.23277       -2.25100
C         11.01144       -0.13246       -0.63765
C         10.64425       -1.42990       -0.31536
C          9.89647       -2.07365       -1.37057
C          9.39375       -3.37665       -1.28463
C          9.69959       -4.04008       -0.06634
C          9.13419       -5.39421        0.14176
C          8.87479       -6.27536       -0.83618
C         10.47637       -3.40772        0.98568
C         10.82284       -4.17608        2.24837
C         10.95682       -2.06529        0.89700
C         11.79339        0.83446        0.07405
C         11.63117        2.15425       -0.11684
C         12.58514        3.10998        0.47842
N         13.60924        2.77072        1.22397
C         14.18711        3.96208        1.51666
C         13.44521        5.04703        0.93032
C         14.10524        6.32897        1.28818
O         13.76632        7.46354        1.03704
C         15.29287        5.86619        2.04483
C         15.26181        4.43223        2.13805
N         16.35403        3.97938        2.80316
C         16.99143        5.08098        3.08688
C         16.37224        6.34823        2.64388
C         12.42931        4.57358        0.21987
C         11.53492        5.31134       -0.57410
S         10.12468        5.94749        0.16811
C          9.52671        6.68890       -1.27932
C         10.45306        6.50741       -2.29514
C         11.58630        5.70373       -1.89630
C         12.64614        5.37776       -2.75772
C         12.51121        5.93244       -4.05998
C         13.62204        5.67980       -4.99331
C         14.68132        6.49580       -5.08807
C         11.36910        6.71614       -4.47317
C         11.27998        7.25665       -5.88441
C         10.29793        7.02893       -3.58996
C          8.26961        7.38327       -1.29614
C          7.29259        7.17764       -0.39430
C          5.98210        7.80153       -0.42016
C          5.75531        9.03332       -0.89340
C          4.89721        7.06557        0.15265
C          3.98202        6.44203        0.62249
C          2.89325        5.70569        1.15363
C          2.24344        6.10642        2.25104
H          5.55919       -1.55676       -8.04751
H          5.04594       -4.06303       -6.32925
H          4.29334       -3.64774       -7.97357
H          7.23148       -0.80868       -3.16554
H          9.73486       -1.99767       -4.53056
H          8.81157       -3.83321       -2.07383
H          8.90074       -5.67423        1.16445
H          9.08213       -6.07115       -1.88041
H          8.43838       -7.24163       -0.60469
H          9.92730       -4.34282        2.85492
H         11.54680       -3.63224        2.86482
H         11.28243       -5.13817        1.99750
H         11.51838       -1.60206        1.69959
H         12.56583        0.46277        0.74409
H         10.85211        2.56493       -0.74730
H         17.95163        5.11186        3.62389
H         16.73554        7.34978        2.76557
H         13.50145        4.77507       -2.47737
H         13.54966        4.78625       -5.60442
H         14.77388        7.39627       -4.48642
H         15.48462        6.27590       -5.78538
H         12.02555        8.04229       -6.04030
H         10.29304        7.69110       -6.08243
H         11.42510        6.45658       -6.61779
H          9.45413        7.62778       -3.91292
H          8.09531        8.07158       -2.11624
H          7.42616        6.46368        0.41761
H          6.54416        9.64797       -1.30743
H          4.75762        9.46980       -0.87651
H          2.58935        4.80009        0.63724
H          2.52735        7.00790        2.78614
H          1.40546        5.53591        2.63731
