98

C          2.82727       -6.21407       -2.06527
C          4.12252       -6.21046       -1.66633
C          4.95221       -7.36646       -1.73845
N          5.61053       -8.31756       -1.83351
C          4.69420       -5.08940       -0.99561
N          5.15342       -4.22642       -0.37244
C          2.01846       -7.44744       -2.13668
C          0.75226       -7.13922       -1.60964
C         -0.22184       -8.09546       -1.41541
C          0.07839       -9.41473       -1.78075
C          1.31901       -9.73221       -2.38527
C          2.29474       -8.73503       -2.56381
C          1.66984      -11.08013       -2.89946
O          2.81781      -11.49002       -2.99508
O          0.55663      -11.66228       -3.38183
C          0.77084      -12.83944       -4.15553
C         -0.91663      -10.40182       -1.50471
N         -1.74115      -11.16938       -1.25250
C          0.61756       -5.67774       -1.40665
O         -0.35965       -5.09266       -0.99212
C          1.87535       -5.09987       -1.99745
C          1.68760       -3.97823       -2.72232
C          2.37105       -3.62948       -3.94301
S          4.02132       -4.05497       -4.19370
C          4.05536       -3.52035       -5.79757
C          5.25498       -3.75980       -6.65432
F          6.20697       -4.50989       -6.04033
F          4.91751       -4.42272       -7.79070
F          5.84580       -2.60013       -7.03132
C          2.88186       -2.87489       -6.11762
C          1.89462       -2.93993       -5.07083
C          0.58151       -2.37152       -5.22625
C         -0.60183       -2.75761       -4.71086
C         -1.71213       -1.88139       -5.01113
C         -1.39995       -0.86605       -5.82623
S          0.29041       -0.95317       -6.25083
O          0.99314        0.19550       -5.71248
O          0.40798       -1.32376       -7.64996
C         -2.28066        0.18293       -6.24207
C         -2.64908        0.40372       -7.51405
C         -3.52364        1.48188       -7.83823
S         -3.34960        2.27463       -9.35499
C         -4.39243        3.56170       -8.90303
C         -4.85173        3.37994       -7.60844
C         -4.58785        2.03827       -7.13581
C         -5.29334        1.47069       -5.91649
C         -5.76255        0.08271       -6.15578
N         -6.11311       -1.01372       -6.29918
C         -6.48409        2.36146       -5.51277
C         -6.05174        3.82644       -5.41644
C         -5.58269        4.40697       -6.77066
C         -4.64644        5.52446       -6.49926
N         -3.87557        6.36112       -6.26582
C         -4.59224        4.64090       -9.81436
C         -5.58841        4.63597      -10.71562
C         -5.74313        5.46850      -11.92348
C         -5.66585        6.81879      -11.98049
C         -6.01978        7.54665      -13.15200
N         -6.33849        8.12345      -14.10646
C         -5.35039        7.59432      -10.82478
N         -5.10892        8.19889       -9.86434
C         -6.23042        4.53873      -12.98478
C         -6.72433        3.38971      -12.34121
C         -6.55034        3.50243      -10.88448
O         -7.12078        2.85615      -10.03350
C         -7.15290        2.25838      -13.01049
C         -7.07007        2.25444      -14.40680
C         -6.61980        3.41195      -15.09181
C         -6.18369        4.55607      -14.37400
C         -6.53763        3.47217      -16.57711
O         -5.69703        4.11510      -17.17897
O         -7.57276        2.78068      -17.09841
C         -7.65435        2.69626      -18.52398
C         -7.35962        1.01567      -15.07415
N         -7.56996       -0.00974      -15.57419
H         -1.18826       -7.82234       -0.99498
H          3.23794       -8.98953       -3.04464
H         -0.20434      -13.30355       -4.32278
H          1.41946      -13.55686       -3.64382
H          1.19161      -12.55223       -5.12308
H          0.79450       -3.39484       -2.49850
H          2.73415       -2.41422       -7.09103
H         -0.76628       -3.62990       -4.09402
H         -2.69327       -2.04014       -4.57938
H         -2.62113        0.81341       -5.42707
H         -2.23233       -0.19676       -8.32155
H         -4.59315        1.46889       -5.07376
H         -6.87209        2.03088       -4.54085
H         -7.30896        2.26824       -6.23096
H         -5.24980        3.89537       -4.66628
H         -6.87754        4.43489       -5.02896
H         -6.45301        4.76968       -7.32910
H         -3.81127        5.39680       -9.84176
H         -7.47069        1.37971      -12.45256
H         -5.78148        5.40499      -14.92479
H         -7.17629        1.77006      -18.85681
H         -7.20728        3.55831      -19.02563
H         -8.71466        2.65064      -18.78840
