96

C          6.59452       -3.38057        6.89614
C          5.57379       -4.33641        7.44098
O          5.77553       -5.16831        8.30856
O          4.38522       -4.17413        6.78552
C          4.55045       -3.22072        5.72269
C          5.71627       -2.36897        6.18422
C          6.39017       -1.57213        5.07639
C          6.69375       -2.39697        3.83067
C          5.49796       -3.19598        3.31693
C          4.77846       -3.97831        4.40071
O          3.50458       -4.28463        3.81639
C          3.20316       -3.35983        2.85602
O          2.12079       -3.32382        2.28940
C          4.35967       -2.38455        2.69750
C          4.56561       -2.00131        1.25434
S          3.31659       -1.15983        0.42580
C          4.13670       -1.23914       -1.06575
C          3.44381       -0.77018       -2.24343
O          3.64863       -1.16709       -3.38829
C          5.40128       -1.77376       -0.92188
C          5.65042       -2.20130        0.41837
C          6.32769       -1.92164       -1.98820
N          7.25260       -0.93672       -2.35589
C          7.52610        0.31399       -1.67891
C          8.62846        0.17597       -0.63593
C          8.03169       -1.34076       -3.46031
O          8.92410       -0.74442       -4.01503
C          7.52008       -2.69990       -3.73179
C          6.47439       -2.98028       -2.78680
C          5.98594       -4.35389       -3.05112
O          5.13749       -4.95953       -2.43921
N          6.80662       -4.77165       -4.12951
C          6.79732       -6.14342       -4.61459
C          5.77816       -6.39386       -5.71577
C          7.69787       -3.75941       -4.51082
C          8.63201       -3.89234       -5.59277
C          9.79653       -3.22582       -5.67117
C         10.77075       -3.40672       -6.74634
C         12.12928       -3.17784       -6.50192
C         13.08146       -3.36189       -7.51122
C         12.60398       -3.85910       -8.72310
N         11.29863       -4.05961       -9.01078
C         10.41428       -3.80266       -8.02727
C         14.55642       -3.09710       -7.32839
C         15.05049       -3.33049       -5.91448
O         15.10661       -4.41112       -5.34457
O         15.40386       -2.14824       -5.32425
C         15.16766       -1.04612       -6.21492
C         15.11081       -1.68617       -7.58579
C         14.53579       -0.76320       -8.65366
C         13.27550        0.00922       -8.27505
C         13.25717        0.57213       -6.85892
C         13.90847       -0.27919       -5.78627
O         14.25574        0.65669       -4.74908
C         14.33038        1.91716       -5.26401
O         14.69356        2.89693       -4.63444
C         13.96104        1.90727       -6.71431
H          7.26461       -3.92369        6.22492
H          7.16005       -2.91450        7.70687
H          3.63389       -2.62100        5.67531
H          5.35209       -1.66288        6.94436
H          7.31808       -1.12423        5.45145
H          5.73785       -0.73560        4.79721
H          7.50900       -3.09511        4.05874
H          7.07571       -1.73496        3.04517
H          5.86659       -3.92059        2.57573
H          5.28674       -4.93253        4.58234
H          4.12908       -1.49937        3.30274
H          2.68414        0.01231       -2.06806
H          6.57310       -2.67909        0.72922
H          6.60754        0.69463       -1.22566
H          7.85142        1.04652       -2.42815
H          8.31207       -0.47249        0.18677
H          8.88335        1.15265       -0.21378
H          9.53784       -0.25314       -1.07008
H          6.56839       -6.80240       -3.76789
H          7.79937       -6.41692       -4.96227
H          4.76173       -6.19830       -5.36281
H          5.82097       -7.43744       -6.04809
H          5.97088       -5.75803       -6.58460
H          8.35225       -4.59435       -6.37094
H         10.10219       -2.53033       -4.89494
H         12.43798       -2.89970       -5.49588
H         13.27336       -4.14173       -9.53031
H          9.37361       -3.94374       -8.30368
H         15.10973       -3.80245       -7.96537
H         16.04292       -0.38821       -6.14728
H         16.15789       -1.86189       -7.88404
H         14.37391       -1.30817       -9.59020
H         15.31109       -0.01668       -8.87995
H         12.40165       -0.63524       -8.41258
H         13.14693        0.83434       -8.98944
H         12.20723        0.73531       -6.57362
H         13.17654       -0.95238       -5.34146
H         14.86844        1.98009       -7.31896
H         13.28090        2.73342       -6.94058
