65

C         -0.57973       -0.43799       -1.94296
C         -1.91817       -0.25320       -2.16952
S         -2.63676       -1.71868       -2.75574
C         -1.15019       -2.54928       -2.70484
Cl        -1.08179       -4.20561       -3.13542
C         -0.14266       -1.74258       -2.27202
C          1.26025       -1.93049       -2.05316
O          1.95087       -2.86015       -2.41354
C          1.65937       -0.65654       -1.30621
C          0.53447        0.34568       -1.46147
C          0.57324        1.69106       -1.31913
C         -0.56543        2.50850       -1.57642
N         -1.49999        3.16367       -1.78547
C          1.75820        2.39239       -0.95655
N          2.73043        2.94103       -0.65195
C          2.76891       -0.56292       -0.54165
C          3.83794       -1.55511       -0.30532
C          5.14591       -1.14859       -0.09843
N          6.18644       -1.98589        0.10680
C          5.90110       -3.30067        0.12264
N          4.66570       -3.81049        0.02475
C          3.66775       -2.92152       -0.17402
C          7.01389       -4.25167        0.21827
C          7.10931       -5.52354        0.76527
C          6.05447       -6.14646        1.44666
C          6.39718       -7.41644        1.94332
C          7.68009       -8.01817        1.76606
C          8.77873       -7.41650        1.08709
C          8.42672       -6.12992        0.60220
C          9.29206       -5.25044       -0.00435
S          8.52590       -3.80278       -0.48893
C         10.11261       -8.02009        1.02406
C         10.98922       -7.90109       -0.04038
N         12.28997       -8.27122       -0.01594
C         12.72244       -8.80980        1.12918
N         11.94504       -9.13496        2.17187
C         10.65568       -8.73076        2.08376
C         14.16296       -8.97435        1.26478
C         14.91037       -8.95051        2.38044
C         16.32367       -9.49193        2.22747
O         16.97966       -9.61807        1.21229
C         16.64961       -9.87330        3.57382
C         17.70390      -10.50270        4.16122
S         17.46152      -10.70301        5.83762
C         15.92101       -9.91039        5.78512
C         15.63950       -9.51281        4.50554
C         14.60739       -8.76139        3.83028
C         13.75183       -7.88673        4.41072
C         13.58117       -7.82670        5.82324
N         13.43762       -7.79149        6.97551
C         13.05946       -6.88204        3.67542
N         12.51763       -6.02522        3.10982
Cl        19.14507      -11.07715        3.43605
H         -2.55004        0.61449       -2.03600
H          2.96079        0.34991        0.01814
H          5.42264       -0.09617       -0.09475
H          2.68947       -3.38866       -0.22560
H          5.07298       -5.71985        1.61072
H          5.64366       -7.96950        2.50573
H          7.80769       -9.00970        2.20455
H         10.34704       -5.34199       -0.21263
H         10.68225       -7.45186       -0.98186
H         10.06735       -8.95833        2.96931
H         14.64021       -9.17191        0.30513
H         15.36030       -9.79412        6.70315
