88

C          3.19134        2.00823        2.12775
C          2.39460        2.95237        2.71855
S          0.75646        2.38982        2.81482
C          1.15406        0.90222        2.08168
Cl        -0.06853       -0.26100        1.79476
C          2.48074        0.83672        1.78161
C          3.30760       -0.17361        1.18975
O          3.01262       -1.33735        1.01879
C          4.65257        0.55734        1.01915
C          4.58298        1.87496        1.75950
C          5.59175        2.72724        2.06968
C          5.35718        3.93268        2.78965
N          5.16825        4.91694        3.36987
C          6.94862        2.49553        1.73102
N          8.06201        2.29995        1.44111
C          5.64923        0.09093        0.24345
C          5.55120       -1.10210       -0.52540
N          4.46568       -1.53197       -1.13531
C          4.72306       -2.72535       -1.72480
C          6.00652       -3.17282       -1.69836
S          6.98164       -2.07189       -0.78173
N          6.28633       -4.31690       -2.38018
C          5.18258       -4.73643       -2.97804
S          3.72999       -3.84365       -2.59165
C          5.08656       -5.83100       -3.86947
N          4.90499       -7.16837       -3.51242
C          4.73924       -7.69684       -2.17495
C          3.28051       -7.76713       -1.74716
C          4.89217       -8.00406       -4.64611
O          4.76502       -9.20660       -4.72928
C          5.08107       -7.05075       -5.75291
C          5.20444       -5.73004       -5.19644
C          5.39552       -4.79307       -6.31870
O          5.54128       -3.58994       -6.25580
N          5.32283       -5.63835       -7.44964
C          5.37997       -5.11614       -8.80254
C          6.79493       -4.98377       -9.34231
C          5.15622       -6.97450       -7.08149
C          5.04706       -8.05292       -8.02140
C          5.85910       -9.11980       -8.00417
C          5.76692      -10.18283       -8.99976
C          6.48221      -10.07645      -10.19172
C          6.45745      -11.14077      -11.10364
N          7.26108      -10.99049      -12.29893
O          7.06482       -9.97959      -12.98532
O          8.11428      -11.86122      -12.52714
C          5.73171      -12.31628      -10.85766
C          4.98329      -12.38070       -9.67271
C          5.00175      -11.32521       -8.75175
C          5.73331      -13.50751      -11.71642
C          4.86791      -13.69629      -12.72429
C          4.79298      -14.94166      -13.46129
C          5.75806      -15.55793      -14.16411
C          5.53762      -17.03008      -14.48472
O          4.49354      -17.65170      -14.49893
C          6.88411      -17.50143      -14.67134
C          7.45092      -18.71620      -14.90766
S          9.15231      -18.61230      -14.98663
C          9.13578      -16.89840      -14.72911
C          7.84691      -16.45786      -14.59691
C          7.16963      -15.19268      -14.46777
C          7.64710      -13.98071      -14.82743
C          9.02964      -13.76200      -15.09894
N         10.15826      -13.61611      -15.31319
C          6.76622      -12.89386      -15.09944
N          6.02215      -12.04620      -15.36003
Cl         6.68117      -20.23104      -15.12136
H          2.62072        3.93797        3.09986
H          6.57380        0.63585        0.10355
H          5.32634       -7.10763       -1.46374
H          5.14620       -8.71478       -2.16745
H          2.85686       -6.76793       -1.61435
H          3.19234       -8.29893       -0.79386
H          2.66937       -8.29364       -2.48778
H          4.92013       -4.12140       -8.79368
H          4.77385       -5.74053       -9.46673
H          7.39281       -4.30569       -8.72468
H          6.77033       -4.57752      -10.35978
H          7.30624       -5.95112       -9.37535
H          4.26262       -7.96810       -8.76856
H          6.64717       -9.23673       -7.26317
H          7.07985       -9.18955      -10.39632
H          4.39413      -13.26701       -9.43916
H          4.43346      -11.41270       -7.82644
H          6.44982      -14.27504      -11.42852
H          4.10807      -12.95151      -12.96060
H          3.82952      -15.44477      -13.34179
H         10.07326      -16.35786      -14.71313
