98

C          6.98998        2.08800        5.94867
N          6.44794        1.43891        6.94248
C          5.24762        2.05931        7.08556
C          5.11252        3.11986        6.11601
C          3.80483        3.79214        6.31856
O          3.31848        4.71971        5.71128
C          3.22204        3.01603        7.43798
C          4.15446        1.99326        7.83914
N          3.63281        1.26663        8.86094
C          2.46666        1.82184        9.04553
C          2.11874        2.96349        8.17228
C          6.18278        3.17762        5.33436
C          6.59224        4.03624        4.27031
C          5.75858        4.63150        3.39878
C          6.20481        5.52875        2.37571
S          7.62797        6.47357        2.58228
C          7.46204        7.28050        1.08263
C          6.29930        6.88579        0.44359
C          5.59627        5.85356        1.16928
C          4.31172        5.30999        0.60276
C          3.33683        6.44695        0.34652
S          3.97316        7.62819       -0.84004
O          3.68065        8.95695       -0.33249
O          3.49304        7.22779       -2.15094
C          5.75687        7.42150       -0.84864
C          8.46558        8.22754        0.73495
C          8.83581        8.43551       -0.53644
C          9.86819        9.45028       -0.82267
N         10.48367       10.17012        0.08234
C         11.33118       10.93081       -0.64996
C         11.18314       10.63910       -2.05181
C         12.16646       11.44492       -2.81598
O         12.36529       11.47137       -4.01033
C         12.86785       12.18615       -1.74225
C         12.29665       11.82518       -0.47002
N         12.94680       12.46765        0.53266
C         13.84546       13.16319       -0.10662
C         13.86829       13.04157       -1.58060
C         10.25778        9.70921       -2.24865
C          9.81888        9.04923       -3.43903
C          9.45664        9.69596       -4.55890
C          9.02058        8.96338       -5.69603
S          7.36580        8.55548       -5.84610
C          7.59496        7.73654       -7.34143
C          8.93822        7.73119       -7.69508
C          9.74507        8.49966       -6.77976
C         11.21884        8.66398       -7.01774
C         11.85564        7.30169       -7.20811
S         11.22662        6.47784       -8.66422
O         11.18184        5.05700       -8.36565
O         11.99706        6.95672       -9.79884
C          9.53747        7.04729       -8.89026
C          6.44518        7.17377       -7.97022
C          6.33620        7.07584       -9.30351
C          5.12215        6.46023       -9.87166
N          3.93956        6.51377       -9.31403
C          3.15522        5.84936      -10.19619
C          3.93042        5.39312      -11.32190
C          3.02227        4.68633      -12.26646
O          3.27178        4.15839      -13.32685
C          1.71429        4.78234      -11.57883
C          1.88203        5.49540      -10.34121
N          0.69375        5.59737       -9.69439
C         -0.12559        4.98103      -10.50081
C          0.44732        4.42189      -11.74464
C          5.20810        5.73205      -11.18459
C          6.35139        5.52332      -12.02339
C          6.53864        4.44379      -12.78861
H          7.99152        1.86870        5.54731
H          1.73945        1.48899        9.80132
H          1.22378        3.55194        8.15680
H          7.66802        4.18646        4.20360
H          4.68834        4.44748        3.46095
H          3.85464        4.57638        1.27320
H          4.53532        4.78633       -0.33624
H          3.13146        6.99761        1.27084
H          2.39006        6.07062       -0.05250
H          6.16329        8.40414       -1.10152
H          5.99923        6.72267       -1.65706
H          8.95564        8.77098        1.54309
H          8.41193        7.89119       -1.36772
H         14.57956       13.81906        0.38580
H         14.53432       13.50019       -2.28302
H          9.78002        7.96209       -3.39989
H          9.47209       10.78097       -4.62849
H         11.69979        9.18003       -6.18065
H         11.36751        9.28662       -7.90927
H         11.64850        6.64928       -6.35257
H         12.93969        7.38430       -7.32911
H          8.96509        6.15861       -9.17399
H          9.54561        7.74448       -9.73530
H          5.62481        6.83893       -7.33447
H          7.08706        7.43333       -9.99221
H         -1.20189        4.85783      -10.30696
H         -0.04390        3.88809      -12.53135
H          7.11574        6.29645      -12.03000
H          5.82349        3.62808      -12.84139
H          7.42898        4.34621      -13.40786
