84

C         -5.09386       -2.56086        0.28755
C         -3.89071       -3.01426        0.71473
C         -3.61798       -4.39804        0.92189
N         -3.40096       -5.52340        1.09640
C         -2.78159       -2.14157        0.93158
N         -1.89108       -1.42400        1.11393
C         -6.27282       -3.39380       -0.10482
C         -7.11533       -2.60853       -0.89692
C         -8.32820       -3.04343       -1.41659
C         -8.73641       -4.36045       -1.11458
C         -7.90016       -5.15982       -0.31877
C         -6.66473       -4.69256        0.20350
S         -8.58935       -6.72835       -0.08159
C         -9.95320       -6.34043       -0.99728
C         -9.93448       -5.06183       -1.48519
Br       -11.35536       -7.54193       -1.31293
C         -6.58477       -1.24478       -1.03085
O         -6.99401       -0.40420       -1.80276
C         -5.44908       -1.16154       -0.05181
C         -5.05415       -0.01507        0.53004
C         -5.65023        1.24815        0.24649
C         -5.26347        2.21485       -0.68120
C         -6.12676        3.34335       -0.67026
C         -7.07172        3.20727        0.31378
S         -7.01766        1.78508        1.17373
C         -7.86376        4.36872        0.33877
C         -7.44659        5.25604       -0.63189
C         -6.31767        4.65054       -1.36185
C         -5.61317        5.06279       -2.44771
C         -4.70027        3.99750       -3.03267
N         -3.94294        3.11376       -3.51793
C         -5.80645        6.38217       -3.17728
N         -5.96679        7.47671       -3.78252
C         -8.26843        6.42009       -0.61264
C         -9.28914        6.33621        0.36073
S         -9.11776        4.87020        1.28784
C        -10.37915        7.28005        0.71822
C        -10.26007        8.68108        0.60764
F         -9.09536        9.19215        0.17163
C        -11.28746        9.60802        0.93452
F        -11.01708       10.91395        0.76868
C        -12.55907        9.24790        1.41508
C        -12.75758        7.85063        1.57580
C        -11.65703        6.84654        1.21446
N        -12.07374        5.58196        1.40713
S        -13.59756        5.62785        2.03717
N        -13.87447        7.25575        2.02978
C        -13.63758       10.20050        1.73280
C        -14.51899       10.57855        0.78229
C        -15.58178       11.52185        1.05850
C        -15.76220       12.10685        2.39850
C        -14.98546       11.84780        3.45009
S        -13.62560       10.76092        3.39303
C        -16.88220       12.95948        2.32381
C        -17.39363       12.93824        1.04937
C        -18.49446       13.80289        0.89023
C        -18.80194       14.41558        2.09694
S        -17.71685       13.96043        3.37052
C        -16.58186       12.02079        0.26378
C        -16.79805       11.71672       -1.14026
C        -18.00026       11.75826       -1.73432
C        -18.22076       11.48098       -3.10894
C        -18.56708       11.27631       -4.24175
C        -19.10932       11.05374       -5.54071
C        -18.86567       11.80961       -6.66065
C        -19.59061       11.37199       -7.78486
C        -20.38561       10.28339       -7.52127
S        -20.22967        9.79812       -5.88366
C        -21.23459        9.63402       -8.46090
N        -21.93168        9.09758       -9.22225
F        -19.51893       11.95235       -8.95350
F        -18.06098       12.83816       -6.68438
H         -8.94788       -2.37650       -2.01003
H         -6.08585       -5.35361        0.83974
H        -10.72813       -4.63149       -2.08452
H         -4.31345       -0.00591        1.32313
H         -4.40353        2.04786       -1.31608
H         -8.15875        7.27114       -1.27531
H        -14.46025       10.17039       -0.22111
H        -15.18419       12.32425        4.40550
H        -19.05138       13.98557       -0.01937
H        -19.60280       15.11490        2.29875
H        -15.92300       11.43048       -1.71843
H        -18.89209       11.99608       -1.16413
