104

C          2.49656       -4.35897        7.67671
C          2.53307       -3.17775        8.42449
F          3.28686       -3.13823        9.53130
C          1.81968       -2.03694        8.03069
F          1.88806       -0.92015        8.76647
C          1.06856       -2.03010        6.86415
C          1.05839       -3.19939        6.12689
C          1.73115       -4.37504        6.52102
C          1.45872       -5.41110        5.49016
C          1.32737       -6.73584        5.73795
C          1.66884       -7.31319        7.00060
N          1.95045       -7.75805        8.02974
C          0.70242       -7.62100        4.81096
N          0.15365       -8.35371        4.09787
C          1.03017       -4.67373        4.29207
C          0.48763       -3.36463        4.77904
O         -0.19623       -2.56536        4.17787
C          1.28477       -4.73296        2.97391
C          2.14061       -5.65414        2.30489
C          2.05584       -6.07127        0.96820
C          3.04463       -7.02915        0.65823
C          3.87058       -7.23499        1.73466
S          3.57331       -6.29289        3.05976
C          4.79092       -8.24392        1.41943
C          4.56685       -8.68473        0.13769
C          3.45467       -7.91846       -0.43529
C          2.93755       -8.00625       -1.67612
C          3.43047       -8.94497       -2.62401
N          3.83670       -9.71832       -3.38738
C          1.88406       -7.15297       -2.10186
N          1.03236       -6.44143       -2.44276
C          5.46830       -9.72061       -0.20692
C          6.33415      -10.00724        0.85399
S          6.00065       -9.00779        2.24009
C          7.39637      -10.98779        0.90233
C          8.18179      -11.46633       -0.15135
C          9.06500      -12.48052        0.29190
C          8.92605      -12.69908        1.63959
S          7.81369      -11.75432        2.40931
C          9.75184      -13.76373        2.02581
C         10.41856      -14.24366        0.92802
C         10.05944      -13.42230       -0.23551
C         10.53774      -13.49796       -1.49159
C         11.51823      -14.45952       -1.85811
N         12.31674      -15.24422       -2.15584
C         10.09874      -12.60672       -2.50744
N          9.73225      -11.87042       -3.32795
C         11.18205      -15.38666        1.26568
C         11.03642      -15.74068        2.62141
S         10.04033      -14.54682        3.44649
C         11.57033      -16.85750        3.36956
C         10.86326      -17.34319        4.41384
C         11.33779      -18.42109        5.23246
C         12.59155      -19.12824        4.95253
C         13.42144      -18.81606        3.95884
S         13.12902      -17.50226        2.85138
C         12.71581      -20.12627        5.93967
C         11.64022      -20.06358        6.79268
C         11.69313      -21.00958        7.82672
C         12.83885      -21.78267        7.69646
S         13.81377      -21.32051        6.33431
C         10.78312      -18.99401        6.33901
C          9.55897      -18.59063        6.98812
C          8.49910      -19.39997        7.13482
C          7.30707      -19.00325        7.86190
C          6.47594      -19.81784        8.53536
C          5.24148      -19.53132        9.32164
C          4.74071      -18.31939        9.67514
C          3.57566      -18.15889       10.47972
N          2.62813      -18.01217       11.13327
C          5.33116      -17.08213        9.28598
N          5.79355      -16.06786        8.96471
C          4.66489      -20.86347        9.70884
C          5.53367      -21.87063        9.27739
C          6.68669      -21.30845        8.57790
O          7.59126      -21.97480        8.11810
C          5.29624      -23.22847        9.43693
C          4.10805      -23.62312       10.05125
C          3.19322      -22.63569       10.50498
C          3.48492      -21.26138       10.33084
C          1.99695      -23.05482       11.10897
C          1.70378      -24.41304       11.25401
C          2.60294      -25.37441       10.80236
C          3.80094      -24.98225       10.20708
H          3.08839       -5.20364        8.01311
H          0.55034       -1.13909        6.52917
H          0.87394       -3.94797        2.33580
H          1.27385       -5.72126        0.30407
H          5.50172      -10.24991       -1.15201
H          8.08108      -11.10518       -1.16779
H         11.77591      -15.97495        0.57561
H          9.89156      -16.94055        4.68486
H         14.33998      -19.37645        3.81286
H         10.95997      -21.13850        8.61267
H         13.16281      -22.59807        8.32830
H          9.55963      -17.58827        7.41130
H          8.52749      -20.39783        6.70102
H          7.13203      -17.93484        7.80673
H          6.01561      -23.95285        9.06362
H          2.74408      -20.54895       10.67591
H          1.27344      -22.32521       11.46851
H          0.76919      -24.72029       11.71714
H          2.37133      -26.43120       10.90981
H          4.48955      -25.74877        9.85675
