87

C         -4.59299        0.31965       -4.53382
C         -4.18652       -0.96738       -4.65403
C         -4.13371       -1.64795       -5.90868
N         -4.09055       -2.19722       -6.92268
C         -3.71140       -1.72790       -3.54244
N         -3.33873       -2.35738       -2.64732
C         -4.96802        1.24545       -5.64490
C         -4.90993        2.55594       -5.16196
C         -5.23090        3.68011       -5.91444
C         -5.63028        3.47889       -7.25390
C         -5.68479        2.16730       -7.75104
C         -5.36967        1.03356       -6.95859
S         -6.17902        2.15068       -9.40704
C         -6.32126        3.83133       -9.44791
C         -6.02427        4.43230       -8.25435
Br        -6.83357        4.77766      -10.98072
C         -4.52371        2.57103       -3.74340
O         -4.19379        3.55725       -3.11990
C         -4.58307        1.13835       -3.29832
C         -4.82195        0.75739       -2.03147
C         -5.02115        1.67005       -0.95513
C         -4.15677        2.24180       -0.03781
O         -2.81967        1.98274       -0.06100
C         -2.02174        3.04219        0.47191
C         -4.85259        3.03590        0.93318
C         -6.22164        3.10954        0.73709
S         -6.63262        2.14940       -0.63067
C         -7.27392        3.82586        1.51937
C         -8.46898        4.34337        0.96749
C         -9.45654        5.06493        1.73806
N        -10.56183        5.51424        1.09896
C        -10.74516        5.24864       -0.22104
C         -9.81565        4.55951       -0.94373
N         -8.67982        4.14250       -0.35200
C         -9.98501        4.18049       -2.31563
N        -10.13689        3.86044       -3.42298
C        -11.97854        5.68779       -0.78597
N        -12.97214        6.01354       -1.28818
C         -9.33065        5.30017        3.13455
C         -8.18465        4.71419        3.75011
C         -7.12294        4.00193        2.92646
N         -6.08387        3.59945        3.68166
S         -6.43616        3.95201        5.25419
N         -7.87736        4.71828        5.05797
C        -10.24142        6.17589        3.94466
C        -10.71633        6.10432        5.25385
O        -10.44455        5.04285        6.05801
C        -11.40078        4.81727        7.09098
C        -11.43579        7.27541        5.65262
C        -11.61842        8.19085        4.63875
S        -10.81839        7.64932        3.22395
C        -12.25294        9.46922        4.64782
C        -13.26157        9.83658        5.45355
C        -14.10052        9.16593        6.45784
C        -14.72337        7.97001        6.32194
C        -15.61606        7.43959        7.29459
N        -16.32925        6.99858        8.09964
C        -14.65171        7.21992        5.11512
N        -14.64891        6.61435        4.12387
C        -14.53204       10.21059        7.42846
C        -14.32332       11.45441        6.82618
C        -13.56130       11.30260        5.57181
O        -13.21785       12.19697        4.82841
C        -14.79497       12.64868        7.35324
C        -15.53332       12.58749        8.55808
C        -15.67286       11.34860        9.20422
C        -15.14260       10.14736        8.67490
S        -16.58768       11.50432       10.66167
C        -16.85027       13.14928       10.39458
C        -16.22513       13.62499        9.27305
Br       -17.89919       14.21454       11.52290
H         -5.19282        4.67284       -5.47366
H         -5.46812        0.04827       -7.39987
H         -6.07089        5.50183       -8.08758
H         -5.04451       -0.27903       -1.79435
H         -0.98609        2.69710        0.54469
H         -2.31404        3.33672        1.48562
H         -2.04677        3.90937       -0.19652
H         -4.35870        3.52404        1.76090
H        -11.26980        3.79143        7.44715
H        -12.42729        4.90702        6.71804
H        -11.24429        5.48941        7.94385
H        -11.79783        7.44862        6.65637
H        -11.81129       10.22625        3.99589
H        -14.64050       13.58599        6.82622
H        -15.28132        9.22181        9.22394
H        -16.27405       14.65708        8.94717
