77

C         -3.03065       -1.21422       -2.45522
O         -3.88321       -1.88270       -1.91177
C         -3.18417       -0.49508       -3.72735
C         -2.14121        0.43300       -3.89543
C         -2.06115        1.12923       -5.09145
C         -3.02522        0.89254       -6.09365
C         -4.06099       -0.04345       -5.89356
C         -4.14974       -0.74341       -4.68996
Br        -5.35379       -0.45593       -7.22306
Br        -2.83402        1.87231       -7.71316
C         -1.27428        0.37335       -2.68068
C         -0.44004        1.33884       -2.22849
C         -0.23157        2.55810       -2.92836
N         -0.06711        3.54730       -3.51419
C          0.23177        1.23100       -0.97329
N          0.77727        1.12731        0.04333
C         -1.64914       -0.87203       -1.97712
C         -0.85630       -1.70999       -1.28511
C         -1.25698       -3.02554       -0.91175
C         -1.89863       -3.43692        0.23812
C         -2.16628       -4.83991        0.21433
C         -1.67336       -5.46743       -0.88764
S         -0.86940       -4.34596       -1.95578
C         -1.93766       -6.87485       -0.89858
C         -2.62075       -7.29402        0.23566
S         -3.00458       -5.94395        1.25645
C         -3.08580       -8.66703        0.60507
C         -3.51517       -9.63727       -0.33490
C         -4.00550      -10.95215        0.05791
N         -4.40055      -11.83071       -0.89204
C         -4.32482      -11.46107       -2.18813
C         -3.86731      -10.22157       -2.55891
N         -3.46669       -9.31034       -1.64668
F         -3.79455       -9.88697       -3.85472
F         -4.70063      -12.35023       -3.11800
C         -4.09568      -11.36068        1.40980
C         -3.60262      -10.43465        2.37830
C         -3.09553       -9.07593        1.97281
N         -2.66786       -8.36600        3.03280
S         -2.93852       -9.24823        4.39199
N         -3.50639      -10.62958        3.70655
C         -4.63624      -12.68115        1.85215
C         -4.57182      -13.91566        1.21982
C         -5.13881      -14.95918        2.01668
C         -5.68525      -14.50998        3.17367
S         -5.58306      -12.78562        3.30336
C         -6.20872      -15.55398        3.99015
C         -6.04985      -16.80939        3.41782
S         -5.28939      -16.68408        1.87841
C         -6.44013      -18.02955        4.06643
C         -5.92784      -19.26025        3.91669
C         -6.00274      -20.13841        5.13796
O         -6.83673      -20.13640        6.01685
C         -4.75670      -20.93286        5.11126
C         -4.05727      -20.69794        3.91453
C         -4.94001      -19.88435        3.03848
C         -5.05676      -20.05474        1.70037
C         -6.23500      -19.65248        0.99571
N         -7.20322      -19.36810        0.43105
C         -4.09710      -20.77845        0.93327
N         -3.30116      -21.35967        0.33019
C         -2.78579      -21.22718        3.76108
C         -2.25772      -22.03392        4.78658
C         -3.00161      -22.29705        5.95722
C         -4.26548      -21.72819        6.13213
Br        -2.35746      -23.40372        7.36067
Br        -0.51197      -22.73347        4.50372
H         -1.25583        1.83087       -5.29633
H         -4.91778       -1.49128       -4.51261
H          0.18329       -1.46860       -1.08650
H         -2.20102       -2.77354        1.03915
H         -1.63522       -7.52696       -1.70882
H         -4.11490      -14.09117        0.25352
H         -6.65644      -15.38402        4.96252
H         -7.09909      -17.87865        4.92630
H         -2.18878      -21.02573        2.87593
H         -4.84664      -21.88155        7.03753
