124

C         -8.85414       -6.11037        3.98949
C         -7.53674       -6.31204        4.37447
C         -6.62677       -6.86186        3.44898
C         -5.28504       -7.09831        3.88004
N         -4.19358       -7.29149        4.24303
C         -7.02818       -7.17728        2.13115
C         -6.09555       -7.72012        1.19278
N         -5.32139       -8.15583        0.43952
C         -8.34720       -6.95329        1.73263
C         -9.22051       -6.43486        2.67492
C        -10.62952       -6.10720        2.44335
O        -11.28103       -6.49141        1.49772
C        -11.04914       -5.28536        3.62800
C        -10.04817       -5.55418        4.68655
C        -10.22972       -5.49229        6.02854
C         -9.24136       -5.93588        6.95891
N         -8.42313       -6.31062        7.68758
C        -11.45569       -5.05916        6.60446
N        -12.45720       -4.69840        7.06884
C        -12.04303       -4.37867        3.57293
C        -12.84834       -4.07312        2.39260
C        -12.24059       -3.58888        1.28983
C        -12.95341       -3.34988        0.06487
C        -14.42099       -3.37233        0.00890
C        -15.20094       -3.78024        1.00966
S        -14.56897       -4.40589        2.51526
C        -14.77917       -2.97231       -1.29477
C        -13.64529       -2.75968       -2.03712
C        -13.90989       -2.37907       -3.36471
C        -15.27759       -2.30374       -3.56769
S        -16.19032       -2.72386       -2.15218
C        -12.50653       -2.99574       -1.17736
C        -11.12942       -2.86901       -1.59010
C        -10.72316       -2.04466       -2.56914
C         -9.35684       -1.91533       -3.04041
C         -9.19356       -1.53148       -4.33140
C         -7.87091       -1.43132       -4.91528
C         -7.44705       -1.10745       -6.17207
C         -8.18606       -0.55009       -7.40006
C         -8.68796       -1.68607       -8.33639
N         -9.39086       -1.24366       -9.55001
C         -9.31362        0.45633       -7.00216
N        -10.11731        0.97721       -8.11348
C         -6.01435       -1.46312       -6.15454
C         -5.11888       -1.59662       -7.14665
C         -3.70731       -2.14266       -6.91513
C         -3.38003       -2.40709       -5.44471
C         -4.27655       -2.26570       -4.45217
C         -5.61125       -1.86748       -4.80739
C         -6.72536       -1.84191       -4.06820
C         -6.92393       -2.16686       -2.67621
C         -8.17980       -2.18058       -2.19654
C         -2.68929       -1.20861       -7.51579
C         -2.20601       -1.29034       -8.77090
C         -1.25060       -0.34508       -9.34111
C         -1.27817        0.95399       -8.97999
C         -0.36266        1.92527       -9.50554
C          0.64398        1.56968      -10.51135
C          0.80901        0.34891      -11.01852
S         -0.15886       -1.01907      -10.54744
C          1.35781        2.74855      -10.79328
C          0.86815        3.78186      -10.02800
C          1.53500        4.99179      -10.28061
C          2.52864        4.81253      -11.23200
S          2.61765        3.18146      -11.80131
C         -0.20811        3.25225       -9.20844
C         -1.00590        3.99476       -8.24612
C         -0.56550        5.05808       -7.55544
C         -1.34913        5.78663       -6.58501
C         -2.48691        6.45163       -6.82196
C         -3.30908        6.86258       -5.64464
O         -2.96104        6.99548       -4.49156
C         -4.68175        6.99570       -6.15918
C         -5.80654        7.27035       -5.39889
C         -7.04473        7.29863       -6.04929
C         -7.12373        7.01511       -7.43109
C         -5.95640        6.74009       -8.17826
C         -4.71975        6.76609       -7.54560
C         -3.30988        6.66010       -8.02298
C         -2.88342        7.01630       -9.26017
C         -1.52457        7.35348       -9.52232
N         -0.43542        7.68975       -9.74159
C         -3.76900        7.20683      -10.35652
N         -4.50938        7.33161      -11.24464
C         -8.38831        7.00784       -8.11421
N         -9.40040        6.99096       -8.67874
C         -8.21405        7.61938       -5.28119
N         -9.14568        7.88738       -4.64601
H         -7.17359       -6.05526        5.36652
H         -8.69066       -7.16378        0.72171
H        -12.26710       -3.74623        4.42707
H        -11.17702       -3.38275        1.30754
H        -16.28081       -3.78456        0.89479
H        -13.17973       -2.16089       -4.13349
H        -15.79684       -2.02910       -4.47558
H        -10.40707       -3.47790       -1.05706
H        -11.44433       -1.41377       -3.08185
H        -10.06529       -1.42642       -4.96144
H         -7.45914        0.03406       -7.98690
H         -9.39035       -2.32494       -7.79790
H         -7.83587       -2.29186       -8.66211
H        -10.16637       -0.64253       -9.22720
H         -9.85618       -2.04790       -9.97188
H         -8.86119        1.31438       -6.49392
H        -10.01327        0.00324       -6.30210
H         -9.49518        1.23168       -8.88500
H        -10.60020        1.83063       -7.83642
H         -5.40191       -1.40270       -8.17537
H         -3.64436       -3.10977       -7.42976
H         -2.37974       -2.75442       -5.19757
H         -4.02235       -2.48452       -3.42072
H         -6.08122       -2.40162       -2.03895
H         -8.35256       -2.44294       -1.15798
H         -2.34779       -0.41066       -6.86194
H         -2.53274       -2.09445       -9.43004
H         -2.00738        1.30613       -8.26038
H          1.57739        0.16297      -11.76275
H          1.34937        5.95277       -9.82560
H          3.20520        5.56239      -11.61858
H         -2.01737        3.63297       -8.06811
H          0.45313        5.40932       -7.69112
H         -0.97572        5.72790       -5.55561
H         -5.71240        7.45982       -4.33127
H         -6.05801        6.51870       -9.23874
