104

C          0.45324       -5.94062        3.39938
C          1.43312       -5.90074        4.38244
C          2.10664       -7.09194        4.73388
C          3.08608       -7.03430        5.78394
N          3.86286       -6.96775        6.64106
C          1.79632       -8.31357        4.09318
C          2.43380       -9.54286        4.47254
N          2.92505      -10.54780        4.77587
C          0.80888       -8.35416        3.10288
C          0.15102       -7.17349        2.79882
C         -1.03223       -7.04867        1.93245
O         -1.42175       -7.88700        1.14950
C         -1.58685       -5.68694        2.23463
C         -0.49036       -4.92156        2.86095
C         -0.28886       -3.58300        2.79726
C          0.87816       -2.96390        3.32565
N          1.83835       -2.48570        3.76640
C         -1.19608       -2.71033        2.12436
N         -1.94268       -2.00813        1.58576
C         -2.88765       -5.36458        2.17970
C         -3.90628       -6.26052        1.75909
S         -4.57389       -6.05546        0.19483
C         -5.73613       -7.28169        0.43723
C         -5.65445       -7.82485        1.70397
C         -4.54334       -7.27892        2.45413
C         -4.24163       -7.75993        3.84763
F         -2.89771       -7.86885        4.06096
C         -4.87424       -9.13050        4.12407
C         -6.35497       -9.13267        3.74979
C         -6.56745       -8.89068        2.25090
F         -7.87425       -8.53475        2.08503
C         -6.63521       -7.60861       -0.60809
C         -6.32680       -8.60311       -1.44594
C         -7.20989       -8.97124       -2.47958
N         -6.64607       -9.48636       -3.62278
C         -7.65138       -9.74319       -4.50585
C         -7.88520      -10.22171       -5.81220
C         -9.26026      -10.16785       -5.96863
N         -9.83489       -9.69681       -4.80740
C         -8.83105       -9.42366       -3.92452
C         -8.58940       -8.92597       -2.62457
C        -10.13746      -10.50205       -7.02426
C         -9.67392      -11.00074       -8.17876
C        -10.54229      -11.38483       -9.23932
S         -9.96787      -11.19539      -10.84737
C        -11.40228      -11.81357      -11.54313
C        -12.33463      -12.12776      -10.57022
C        -11.81657      -11.93788       -9.23109
C        -12.63648      -12.29912       -8.01428
F        -11.89321      -12.98649       -7.10293
C        -13.85554      -13.15845       -8.34841
C        -14.59513      -12.60095       -9.56041
C        -13.70884      -12.68695      -10.80344
F        -14.33682      -12.03149      -11.82124
C        -11.47596      -11.92251      -12.95871
C        -11.04923      -13.04240      -13.56376
C        -10.98947      -13.22719      -14.99626
C        -11.97158      -13.10719      -15.90077
C        -11.58790      -13.07782      -17.34588
O        -10.54388      -13.42185      -17.85703
C        -12.73449      -12.48058      -18.04692
C        -12.80398      -12.23409      -19.41011
C        -13.98390      -11.67937      -19.91533
C        -15.04228      -11.35783      -19.03800
C        -14.93240      -11.60750      -17.65094
C        -13.77915      -12.19830      -17.14904
C        -13.39535      -12.75153      -15.81442
C        -14.26722      -13.13244      -14.84994
C        -13.93723      -14.16543      -13.92436
N        -13.70673      -15.05997      -13.22229
C        -15.60717      -12.65852      -14.77895
N        -16.68981      -12.24558      -14.73404
C        -16.27203      -10.80170      -19.53280
N        -17.27456      -10.36309      -19.91344
C        -14.09270      -11.46982      -21.33155
N        -14.16744      -11.31985      -22.47795
H          1.66518       -4.98551        4.92359
H          0.51678       -9.28328        2.61725
H         -3.24541       -4.39950        2.52628
H         -4.62235       -7.02556        4.56571
H         -4.75209       -9.38091        5.18389
H         -4.34472       -9.91067        3.56180
H         -6.88335       -8.36039        4.32376
H         -6.82024      -10.08503        4.02800
H         -6.40884       -9.82386        1.69710
H         -7.56045       -7.04498       -0.68514
H         -5.37335       -9.12724       -1.35207
H         -5.66635       -9.63618       -3.82757
H         -7.15351      -10.55622       -6.53315
H        -10.81556       -9.56179       -4.59878
H         -9.31238       -8.58527       -1.89580
H        -11.19776      -10.34747       -6.86800
H         -8.60491      -11.10863       -8.34329
H        -12.98489      -11.37851       -7.53381
H        -14.51888      -13.19677       -7.47683
H        -13.54151      -14.19310       -8.53774
H        -14.89230      -11.56038       -9.37802
H        -15.52079      -13.16091       -9.73305
H        -13.60948      -13.73682      -11.08459
H        -11.83835      -11.06359      -13.51537
H        -10.62963      -13.85867      -12.97363
H         -9.98355      -13.47318      -15.34757
H        -11.96641      -12.49049      -20.05647
H        -15.77428      -11.34814      -17.01404
