90

C          8.34761       -4.55565        2.03192
C          8.97572       -4.05609        3.17876
F         10.25897       -4.37111        3.39949
C          8.29356       -3.24672        4.09068
F          8.92315       -2.78457        5.17837
C          6.95897       -2.92903        3.89329
C          6.35839       -3.42668        2.74727
C          7.02237       -4.21461        1.78938
C          6.06610       -4.50048        0.66733
C          6.46393       -4.78068       -0.60020
C          7.83182       -5.03983       -0.94084
N          8.93737       -5.25486       -1.21070
C          5.61107       -4.72740       -1.73848
N          5.02135       -4.64598       -2.73597
C          4.72744       -4.13259        1.18174
C          4.94267       -3.28029        2.39957
O          4.11880       -2.65053        3.02928
C          3.45208       -4.52811        1.03178
C          3.01746       -5.57349        0.20321
S          3.09239       -7.24592        0.64298
C          2.50190       -7.78785       -0.90786
C          2.09721       -6.68238       -1.57604
C          2.33021       -5.47882       -0.95267
N          1.89177       -4.35050       -1.58428
C          1.34863       -4.88129       -2.75061
C          0.71809       -4.06749       -3.73754
N          0.18615       -3.39441       -4.51091
C          1.48617       -6.28571       -2.79309
C          2.52156       -9.16177       -1.23943
C          2.85802       -9.53455       -2.48144
C          2.93869      -10.89725       -2.82819
N          2.74300      -11.20261       -4.15472
C          2.86456      -12.55034       -4.29179
C          2.80402      -13.57443       -5.25718
C          3.06585      -14.73889       -4.55433
N          3.27617      -14.43530       -3.22471
C          3.14265      -13.09049       -3.08139
C          3.19317      -12.05769       -2.11544
C          3.16167      -16.09643       -4.92150
C          2.98678      -16.47277       -6.19692
C          3.10919      -17.82404       -6.58526
S          2.80299      -19.18089       -5.55649
C          3.17424      -20.35493       -6.77955
C          3.52602      -19.66643       -7.89312
C          3.47339      -18.29293       -7.79961
N          3.81589      -17.57490       -8.91305
C          4.15492      -18.58515       -9.80844
C          4.63073      -18.31341      -11.12609
N          5.02219      -18.07523      -12.18982
C          3.97819      -19.86187       -9.22762
C          3.04587      -21.72699       -6.45568
C          2.73688      -22.62157       -7.40107
C          2.57067      -24.02285       -7.11805
C          2.23392      -24.98294       -7.99256
C          2.52818      -26.39209       -7.58423
O          2.69039      -26.83419       -6.46695
C          2.68381      -27.13393       -8.84408
C          2.39915      -26.30223       -9.94727
C          2.60088      -26.80446      -11.22542
C          3.03349      -28.12808      -11.36210
C          3.27850      -28.93798      -10.24708
C          3.11594      -28.44463       -8.96129
F          3.68997      -30.20122      -10.41594
F          3.21560      -28.62264      -12.59378
C          1.90309      -24.99484       -9.42247
C          1.08137      -24.14257      -10.08279
C          0.36747      -23.09322       -9.42963
N         -0.22985      -22.23902       -8.92277
C          0.77965      -24.28303      -11.46764
N          0.55014      -24.39534      -12.59605
H          8.93480       -5.19973        1.38840
H          6.41114       -2.33126        4.61303
H          2.68359       -4.11126        1.68610
H          1.93647       -3.39252       -1.25940
H          1.15154       -6.92541       -3.60049
H          2.30036       -9.89284       -0.46698
H          3.09476       -8.79409       -3.24295
H          2.53216      -10.57789       -4.92246
H          2.60187      -13.47373       -6.31287
H          3.49746      -15.06435       -2.46355
H          3.40075      -12.14647       -1.05842
H          3.39635      -16.82398       -4.14765
H          2.76405      -15.73900       -6.96445
H          3.82801      -16.56882       -9.02958
H          4.18048      -20.80341       -9.72035
H          3.14896      -22.02492       -5.41477
H          2.62171      -22.28175       -8.42300
H          2.83985      -24.32465       -6.10234
H          2.44853      -26.22761      -12.13038
H          3.33112      -29.05631       -8.09210
