100

C         -4.82478       -6.97970        0.61775
C         -5.33398       -8.28084        0.71793
F         -6.53046       -8.46393        1.29294
C         -4.61467       -9.38908        0.25140
F         -5.11817      -10.62196        0.39476
C         -3.36821       -9.23282       -0.33580
C         -2.88058       -7.94068       -0.42736
C         -3.57944       -6.80477        0.03005
C         -2.70629       -5.61603       -0.18339
C         -3.10116       -4.33015       -0.33593
C         -4.46950       -3.94530       -0.25949
N         -5.59087       -3.65362       -0.20368
C         -2.18523       -3.29148       -0.67654
N         -1.42957       -2.44883       -0.93229
C         -1.35489       -6.14992       -0.43477
C         -1.54449       -7.56037       -0.90746
O         -0.80011       -8.25537       -1.56383
C         -0.16419       -5.63995       -0.08610
C          1.04626       -6.36254       -0.23430
S          1.65189       -7.33699        1.06623
C          1.93257       -6.41005       -1.27338
C          2.03784       -5.84897       -2.59563
O          1.18449       -5.20478       -3.18145
N          3.30591       -6.20211       -3.02612
C          3.88004       -5.77805       -4.28329
C          3.60234       -6.76577       -5.40325
C          3.99859       -6.98624       -2.12060
O          5.13383       -7.42021       -2.22832
C          3.10092       -7.13950       -1.00156
C          3.09895       -7.77981        0.21161
C          4.04065       -8.64614        0.82645
C          4.82670       -9.43241        0.07768
C          5.84336      -10.22693        0.64803
N          6.61136      -10.95722       -0.23287
C          7.55368      -11.62587        0.48911
C          8.64589      -12.50839        0.34886
C          9.09653      -12.71713        1.64070
N          8.34520      -11.96805        2.51794
C          7.38870      -11.31889        1.79700
C          6.30451      -10.42652        1.93798
C         10.19091      -13.47103        2.11924
C         10.21035      -14.02251        3.33563
C         11.33716      -14.74811        3.80412
S         11.09661      -16.03326        4.94311
C         12.67985      -14.63336        3.55339
C         13.54053      -13.76837        2.78234
O         13.21321      -12.78245        2.14462
N         14.81506      -14.27682        2.97172
C         15.99594      -13.65999        2.39669
C         15.96915      -13.64610        0.87357
C         14.86105      -15.27646        3.92739
O         15.84136      -15.76456        4.46464
C         13.48132      -15.56220        4.24362
C         12.78079      -16.44903        5.02351
C         13.16119      -17.55041        5.84015
C         14.23357      -18.29972        5.54605
C         14.65645      -19.41357        6.36197
C         15.83612      -19.51370        6.99279
C         15.93908      -20.49744        8.11582
O         15.29670      -21.51037        8.29021
C         16.93205      -19.92206        9.03934
C         17.48277      -18.73786        8.50076
C         18.34896      -17.99104        9.28602
C         18.68059      -18.47503       10.55678
C         18.15043      -19.67510       11.04648
C         17.25037      -20.41503       10.29391
F         18.50228      -20.11435       12.26190
F         19.53004      -17.76829       11.31463
C         16.98240      -18.60080        7.10180
C         17.64336      -17.98995        6.08797
C         17.38866      -18.31513        4.72160
N         17.22691      -18.62741        3.61471
C         18.73519      -17.10228        6.30227
N         19.61822      -16.37409        6.49531
H         -5.41394       -6.16670        1.02809
H         -2.79046      -10.08605       -0.67258
H         -0.07872       -4.67213        0.39943
H          4.96381       -5.67249       -4.15715
H          3.46885       -4.79763       -4.54295
H          4.05310       -7.74114       -5.19141
H          4.02138       -6.39456       -6.34383
H          2.52687       -6.91510       -5.54018
H          4.11025       -8.65317        1.91048
H          4.72012       -9.45559       -1.00301
H          6.54176      -11.00185       -1.24192
H          9.05406      -12.93232       -0.55799
H          8.45950      -11.86022        3.51716
H          5.92767       -9.98041        2.84679
H         11.01625      -13.60310        1.42583
H          9.34216      -13.96164        3.99485
H         16.88607      -14.19924        2.73700
H         16.05698      -12.63234        2.77140
H         15.90920      -14.66393        0.47492
H         16.87509      -13.17380        0.48158
H         15.11172      -13.08784        0.48492
H         12.54326      -17.78941        6.70442
H         14.80786      -18.09856        4.65029
H         13.88017      -20.15270        6.57270
H         18.78281      -17.04903        8.97082
H         16.81272      -21.32970       10.67772
