137

C          4.00297       -1.21784       -2.08989
C          4.19261       -2.43829       -2.94337
O          4.95355       -2.54453       -3.88350
C          3.33261       -3.48822       -2.33799
C          2.57531       -2.91742       -1.28893
C          2.79496       -1.44790       -1.28442
C          1.91759       -0.50374       -0.85734
C          2.05559        0.87683       -1.19061
N          2.13540        2.00088       -1.46977
C          0.74497       -0.82596       -0.11526
N         -0.18692       -1.10342        0.51346
C          1.80525       -3.74119       -0.48405
C          1.74287       -5.10656       -0.78002
C          2.45591       -5.67026       -1.85931
C          3.29081       -4.85344       -2.66055
C          4.01455       -5.45886       -3.71370
C          3.89775       -6.82480       -3.97683
C          3.06448       -7.61278       -3.19397
C          2.35144       -7.04048       -2.14039
C          5.03162       -0.36804       -2.01864
C          5.24301        0.56771       -0.96766
C          4.87688        0.51591        0.35881
C          5.30596        1.61879        1.19000
C          5.10799        1.90651        2.57891
C          4.14930        1.09444        3.42500
C          3.36736        1.47270        4.51768
C          2.50722        0.44668        5.01836
C          2.58342       -0.69941        4.26674
S          3.88494       -0.59917        3.17440
C          1.74262       -1.93155        4.34522
Cl         1.47217        0.68739        6.35996
C          5.81507        2.99649        3.15807
C          6.61830        3.85540        2.39100
C          6.74258        3.60931        0.99952
C          6.10239        2.48609        0.42298
S          6.18879        1.93950       -1.22531
C          7.68001        4.45337        0.19247
C          8.93896        4.94694        0.51835
C          9.59653        5.60466       -0.56382
C          8.86470        5.53860       -1.72615
S          7.26981        5.02266       -1.39080
C          9.28429        5.87259       -3.11958
Cl        11.15631        6.28990       -0.40497
C          7.19963        4.88814        3.22337
C          6.98042        4.74028        4.57439
S          5.90162        3.45538        4.82524
C          7.52922        5.49897        5.70667
C          7.76231        4.95580        6.98526
F          7.45768        3.66944        7.22883
C          8.33689        5.66464        8.05704
F          8.44403        4.98951        9.21473
C          8.79049        6.99874        7.98357
C          8.58070        7.62235        6.72092
C          7.92834        6.86249        5.56545
N          7.79955        7.63083        4.46935
S          8.43595        9.11488        4.81391
N          8.91878        8.87778        6.37601
C          9.45134        7.70513        9.08717
C          9.47390        9.04038        9.43488
C         10.24727        9.35248       10.62843
C         10.50643       10.58125       11.30320
C         10.02105       11.85000       10.67904
C          9.99288       12.22750        9.34034
C          9.44341       13.52741        9.11873
C          9.11212       14.15964       10.29422
S          9.28605       13.09802       11.61973
C          8.58958       15.54041       10.51799
Cl         9.25002       14.17901        7.54712
C         11.24091       10.58081       12.52232
C         11.72418        9.38684       13.08039
C         11.43156        8.16789       12.42182
C         10.74584        8.17176       11.19143
S         10.39954        6.82423       10.17996
C         11.76170        6.86222       13.06484
C         12.29817        5.69866       12.52954
C         12.32139        4.60212       13.44318
C         11.90124        4.96342       14.70217
S         11.31675        6.56798       14.70473
C         11.87262        4.15923       15.96136
Cl        12.83475        3.03948       12.96860
C         12.49638        9.65314       14.27384
C         12.41816       10.94838       14.73687
S         11.69856       11.91758       13.53803
C         12.89975       11.54801       15.93980
C         13.03786       10.90253       17.10771
C         13.84352       11.52528       18.21686
O         14.13420       12.69814       18.32490
C         14.27030       10.39191       19.08718
C         13.76377        9.19216       18.55129
C         12.73280        9.54362       17.54970
C         11.54142        8.90589       17.45031
C         10.40928        9.50264       16.82104
N          9.46660        9.98407       16.34813
C         11.29313        7.65045       18.07796
N         11.11685        6.61521       18.57121
C         14.18852        7.97081       19.04146
C         14.99342        7.96141       20.18048
C         15.36393        9.15741       20.83014
C         15.03025       10.41417       20.26309
C         15.42088       11.58935       20.93699
C         16.07075       11.52171       22.17007
C         16.37174       10.28589       22.73281
C         16.03997        9.11232       22.05700
H          1.25119       -3.37732        0.37480
H          1.11961       -5.74419       -0.15141
H          4.67222       -4.86978       -4.34994
H          4.45826       -7.26695       -4.79669
H          2.96879       -8.67564       -3.40077
H          1.70740       -7.67914       -1.53987
H          5.84033       -0.46087       -2.75000
H          4.34336       -0.34226        0.72079
H          3.36954        2.46175        4.95472
H          1.91450       -2.46108        5.28714
H          1.94479       -2.62544        3.52189
H          0.67911       -1.66968        4.28880
H          9.40805        4.80821        1.48347
H          9.68667        6.88799       -3.17917
H          8.46200        5.78910       -3.83755
H         10.06929        5.17785       -3.44491
H          7.82118        5.68209        2.83128
H          8.92810        9.78362        8.86780
H         10.34298       11.59715        8.53189
H          8.95373       16.23620        9.75419
H          8.90498       15.94052       11.48857
H          7.49584       15.53891       10.48650
H         12.61627        5.60357       11.49911
H         11.89612        3.08435       15.75645
H         10.96998        4.35805       16.54768
H         12.74512        4.39899       16.58008
H         13.03985        8.88298       14.80437
H         13.22093       12.58930       15.88028
H         13.89087        7.02605       18.59584
H         15.29145        6.99907       20.59612
H         15.18384       12.57115       20.53101
H         16.32552       12.43713       22.69836
H         16.85854       10.23327       23.70335
H         16.28383        8.15689       22.51780
