117

C         -0.51865        0.72542       -0.58752
F         -0.90721        1.53349        0.40955
C         -0.12641        1.26577       -1.79424
F         -0.13091        2.59721       -1.97629
C          0.28881        0.42546       -2.82186
F          0.68497        0.94373       -3.99106
C          0.30029       -0.95043       -2.63373
F          0.74167       -1.71862       -3.64253
C         -0.11289       -1.53887       -1.41559
C         -0.51416       -0.65870       -0.39774
F         -0.91359       -1.13663        0.79046
C         -0.11223       -2.99988       -1.19847
C          0.17803       -3.72537       -0.06057
C          0.09350       -5.16939       -0.21485
C          0.26524       -6.23328        0.71313
C          0.40732       -5.89264        2.16096
C         -0.24657       -4.91932        2.90919
C          0.10119       -4.92799        4.29568
C          0.98223       -5.94036        4.59791
S          1.55296       -6.69377        3.17790
C          1.45500       -6.39191        5.93921
C          0.23263       -7.58359        0.26647
C          0.09243       -7.90581       -1.08983
C         -0.09327       -6.83827       -2.00981
C         -0.15712       -5.49720       -1.55354
S         -0.59985       -4.06573       -2.43144
C         -0.25396       -7.15197       -3.45457
C         -1.00324       -8.14504       -4.06922
C         -0.93610       -8.11084       -5.49531
C         -0.18235       -7.05348       -5.95126
S          0.62091       -6.27450       -4.66212
C         -0.01699       -6.57168       -7.35376
C          0.18138       -9.35190       -1.28309
C          0.28363      -10.10619       -0.12648
S          0.33457       -9.03611        1.19820
C          0.38860      -11.58665        0.08217
C         -0.10801      -12.29568        1.20986
C          0.07010      -13.73040        1.39382
N         -0.44402      -14.33287        2.48933
C         -1.06953      -13.57679        3.41443
C         -1.23226      -12.22648        3.24795
N         -0.78332      -11.59536        2.14608
F         -1.84001      -11.49275        4.19025
F         -1.53155      -14.18288        4.51658
C          0.75535      -14.54227        0.46026
C          1.23535      -13.87588       -0.70715
C          1.05070      -12.38245       -0.89780
N          1.58351      -11.95222       -2.05602
S          2.24179      -13.25188       -2.82741
N          1.88552      -14.44063       -1.74150
C          0.96595      -16.01548        0.59384
C          0.89579      -17.00397       -0.36965
C          1.10222      -18.38255        0.05980
C          1.11060      -19.65107       -0.63801
C          1.02209      -19.67451       -2.16877
C          0.74267      -18.67675       -3.10420
C          0.73401      -19.08524       -4.47557
C          0.97670      -20.42409       -4.60439
S          1.37612      -21.09918       -3.10664
C          0.96968      -21.26364       -5.83343
C          1.20121      -20.86376        0.14526
C          1.32332      -20.84317        1.54741
C          1.40630      -19.57796        2.19182
C          1.29925      -18.37683        1.45112
S          1.43877      -16.74243        2.05285
C          1.55470      -19.51601        3.67368
C          0.87488      -18.74030        4.60439
C          1.24124      -19.01765        5.95622
C          2.15131      -20.04645        6.03880
S          2.75769      -20.44896        4.49362
C          2.61575      -20.76664        7.25949
C          1.34775      -22.19595        2.09797
C          1.38045      -23.21123        1.16564
S          1.15916      -22.53699       -0.36767
C          1.56248      -24.61898        1.32384
C          0.52650      -25.47328        1.45985
O          0.66062      -26.84849        1.61247
C          1.91555      -27.40101        1.62131
C          1.99453      -28.78494        1.79758
C          3.24070      -29.41364        1.82346
C          4.40393      -28.65828        1.66515
C          4.32187      -27.27416        1.48643
C          3.06996      -26.64546        1.47241
C          2.94793      -25.18619        1.30734
O          3.94898      -24.49116        1.16812
C         -0.91881      -25.06041        1.44532
H          0.46371       -3.24270        0.86641
H         -0.97580       -4.23246        2.49720
H         -0.32123       -4.26076        5.03820
H          1.43897       -5.56701        6.65900
H          2.47475       -6.78786        5.90525
H          0.79660       -7.18118        6.32200
H         -1.60133       -8.86540       -3.52598
H         -1.46521       -8.79311       -6.14990
H         -0.15903       -7.38973       -8.06779
H          0.97253       -6.13907       -7.53064
H         -0.76923       -5.80471       -7.57343
H          0.15342       -9.81028       -2.26346
H          0.66636      -16.70067       -1.37028
H          0.52379      -17.65131       -2.89057
H          0.52901      -18.42364       -5.30849
H          0.54737      -20.71226       -6.68054
H          0.35890      -22.16294       -5.69104
H          1.98522      -21.57046       -6.09977
H          0.11645      -18.01231        4.34281
H          0.80251      -18.53341        6.82087
H          2.81944      -20.06485        8.07432
H          3.52080      -21.35578        7.08250
H          1.83100      -21.45425        7.59760
H          1.41001      -22.42261        3.15553
H          1.08852      -29.37339        1.91490
H          3.30344      -30.48931        1.96136
H          5.37447      -29.14865        1.68090
H          5.23224      -26.69070        1.36139
H         -1.16105      -24.48239        0.54901
H         -1.16162      -24.47415        2.33667
H         -1.57372      -25.93848        1.43961
