91

C        -11.42875        0.42538       -2.06735
C        -12.80898        0.26978       -1.96098
F        -13.61622        1.12385       -2.60468
C        -13.34741       -0.75720       -1.19940
F        -14.67566       -0.91082       -1.11397
C        -12.51688       -1.63510       -0.51324
C        -11.12510       -1.48613       -0.58763
C        -10.56273       -0.45069       -1.39311
C         -9.15882       -0.32272       -1.50733
C         -8.32408       -1.18915       -0.80983
C         -8.91666       -2.17476       -0.00784
C        -10.28489       -2.34917        0.11778
C         -7.89551       -3.02409        0.61534
O         -8.08833       -3.79878        1.52754
C         -6.61153       -2.67052       -0.07440
C         -6.84046       -1.36116       -0.73727
C         -5.90331       -0.44057       -1.06887
C         -4.51399       -0.65339       -0.83436
N         -3.38472       -0.84037       -0.64282
C         -6.23218        0.83519       -1.61361
N         -6.50552        1.87050       -2.05862
C         -5.58917       -3.53241       -0.21059
C         -5.59387       -4.85072        0.33422
C         -5.15078       -5.26137        1.58802
C         -5.22739       -6.67426        1.70725
C         -5.76677       -7.23330        0.58476
S         -6.15711       -6.17023       -0.66336
C         -5.91863       -8.60309        0.60411
C         -5.47032       -9.24236        1.72170
S         -4.88324       -7.99680        2.76205
C         -5.64720      -10.64657        1.61334
C         -6.27996      -10.98119        0.41627
S         -6.59527       -9.57894       -0.58730
C         -6.69196      -12.31195       -0.06668
C         -6.75327      -12.65898       -1.42962
C         -7.15487      -13.92645       -1.90077
F         -7.18918      -14.05611       -3.23742
C         -7.51756      -15.01791       -1.07921
C         -7.47754      -14.73621        0.31771
C         -7.06260      -13.35660        0.83592
N         -7.10562      -13.28848        2.17863
S         -7.57737      -14.76731        2.74125
N         -7.76472      -15.58750        1.32011
C         -7.87703      -16.35964       -1.57687
C         -8.75673      -17.31043       -1.04560
C         -8.79529      -18.48235       -1.85504
C         -7.94688      -18.35472       -2.90916
S         -7.07312      -16.92739       -3.01740
C         -7.87450      -19.41860       -3.76852
C         -8.66528      -20.48778       -3.49688
S         -9.50010      -20.05532       -2.04249
C         -8.48659      -21.49420       -4.49114
C         -7.54003      -21.10605       -5.45468
S         -6.89005      -19.53638       -5.11235
C         -7.13631      -21.88100       -6.59563
C         -5.95509      -21.87600       -7.23846
C         -5.63320      -23.09043       -8.06796
O         -6.40507      -23.85832       -8.60145
C         -4.16046      -23.21116       -8.02753
C         -3.39659      -24.22422       -8.57901
C         -2.00960      -24.18012       -8.38672
C         -1.43428      -23.15126       -7.57725
C         -0.04739      -23.13761       -7.36998
C          0.75921      -24.09399       -7.97831
C          0.20307      -25.07461       -8.78736
C         -1.17272      -25.13112       -8.98744
F          0.98952      -25.97659       -9.38991
F          2.08444      -24.05059       -7.78552
C         -2.24755      -22.14255       -7.02731
C         -3.60463      -22.14023       -7.31015
C         -4.69029      -21.14205       -7.11248
C         -4.48142      -19.82256       -7.35297
C         -5.51430      -18.99108       -7.88684
N         -6.33085      -18.32438       -8.36833
C         -3.19897      -19.21327       -7.26120
N         -2.14352      -18.73089       -7.15980
H        -11.04761        1.24110       -2.67668
H        -12.97037       -2.42910        0.07440
H         -8.76404        0.44804       -2.16308
H        -10.67214       -3.15382        0.73784
H         -4.72428       -3.29765       -0.82253
H         -4.78257       -4.59469        2.35670
H         -5.34551      -11.35693        2.37283
H         -6.47555      -11.93145       -2.19240
H         -9.33408      -17.17769       -0.13914
H         -9.00842      -22.44387       -4.50032
H         -7.84570      -22.66352       -6.87552
H         -3.87424      -25.01108       -9.15699
H          0.42628      -22.37632       -6.75507
H         -1.57259      -25.91226       -9.62861
H         -1.79591      -21.36169       -6.42021
