142

C          3.01594        0.96633        0.11246
C          4.27599        0.60978        0.44999
C          4.82218       -0.63896        0.05666
N          5.25630       -1.67533       -0.26636
C          5.07880        1.42182        1.31288
N          5.72637        2.08472        2.00182
C          2.01988        0.16266       -0.63635
C          0.75431        0.48306       -0.13058
C         -0.42502       -0.04321       -0.61913
C         -0.34516       -0.83753       -1.76400
C          0.92454       -1.10134       -2.36393
C          2.11347       -0.63223       -1.76517
C          0.95947       -1.78678       -3.58571
C         -0.22025       -2.21473       -4.19958
C         -1.45034       -1.99622       -3.58527
C         -1.51336       -1.31690       -2.37012
C          0.86645        1.59689        0.82470
O          0.01385        1.92800        1.61724
C          2.26216        2.11570        0.63160
C          2.66329        3.39453        0.52937
C          1.82224        4.53875        0.62450
C          0.70934        4.82408        1.37923
C          0.13677        6.13983        1.17033
C         -0.98670        6.77977        1.75242
C         -1.77083        6.04766        2.76485
C         -3.11164        5.70735        2.74223
C         -3.51140        4.94347        3.87758
C         -2.46193        4.69925        4.73631
S         -1.04023        5.50046        4.22551
C         -2.46486        3.86280        5.97119
C         -1.39979        8.05908        1.33083
C         -0.69428        8.73632        0.33058
C          0.42576        8.09876       -0.26020
C          0.84111        6.82256        0.17567
S          2.16858        5.86504       -0.38097
C          1.13220        8.73068       -1.40336
C          2.48568        8.76255       -1.70941
C          2.76712        9.31694       -2.99188
C          1.62733        9.75327       -3.62297
S          0.23953        9.44886       -2.69233
C          1.47887       10.34163       -4.97811
C         -1.28831       10.02444        0.09083
C         -2.42478       10.31756        0.80931
S         -2.74895        9.01576        1.87344
C         -3.19361       11.53831        0.70193
C         -3.80690       12.01111        1.80737
C         -4.38581       13.33403        1.87660
C         -4.65271       14.08416        0.78291
C         -4.39305       13.45962       -0.58711
C         -3.20403       12.44895       -0.54510
N         -3.08966       11.67385       -1.80462
C         -4.20506       11.43026       -2.40144
C         -5.53344       11.90793       -1.90409
N         -5.67138       12.85944       -1.04680
F         -6.63767       11.32724       -2.38941
F         -4.17217       10.73187       -3.54343
C         -5.21833       15.39415        0.95246
C         -6.08578       16.02633        0.09159
C         -6.60056       17.29198        0.54614
C         -7.60469       18.14369        0.01903
C         -8.40728       17.72666       -1.16915
C         -8.92203       18.48602       -2.21417
C         -9.62822       17.73045       -3.19082
C         -9.57687       16.38551       -2.92006
S         -8.94049       16.09563       -1.36913
C        -10.02184       15.25660       -3.77910
C         -7.84025       19.40464        0.60828
C         -7.10370       19.85969        1.70412
C         -6.14223       18.97634        2.26107
C         -5.91533       17.70217        1.69603
S         -4.85673       16.44226        2.24760
C         -5.33517       19.41693        3.41830
C         -3.96276       19.35758        3.60817
C         -3.53590       19.99177        4.81142
C         -4.59017       20.55507        5.49401
S         -6.08603       20.08167        4.81991
C         -4.55212       21.47073        6.66734
C         -7.49005       21.22683        2.03214
C         -8.59716       21.69704        1.35061
S         -8.98660       20.58749        0.13777
C         -9.26212       22.95819        1.47170
C        -10.56128       23.21249        1.21471
C        -11.24113       24.53317        1.15282
C        -11.03380       25.59422        1.96936
C        -11.85740       26.75691        1.93862
N        -12.53100       27.69960        1.91203
C        -10.03841       25.59035        2.98651
N         -9.21716       25.58576        3.81079
C        -12.38351       24.37695        0.20086
C        -12.58484       23.00818       -0.00475
C        -11.60292       22.22870        0.74633
O        -11.73456       21.05024        1.00069
C        -13.58407       22.47838       -0.80211
C        -14.45507       23.36661       -1.43005
C        -14.27341       24.76931       -1.26545
C        -13.21983       25.26482       -0.46092
C        -15.17013       25.63821       -1.90458
C        -16.22492       25.14138       -2.67136
C        -16.39970       23.76668       -2.82405
C        -15.51227       22.88277       -2.21130
H         -1.37623        0.24268       -0.17852
H          3.07199       -0.82589       -2.23841
H          1.90553       -1.96608       -4.09229
H         -0.17820       -2.71496       -5.16395
H         -2.36600       -2.33768       -4.06235
H         -2.48664       -1.13843       -1.91713
H          3.67880        3.59023        0.17087
H          0.29431        4.12031        2.08216
H         -3.77958        5.97695        1.93364
H         -4.51398        4.56602        4.03680
H         -3.40710        3.98516        6.51577
H         -1.64914        4.12257        6.65305
H         -2.36413        2.80402        5.70676
H          3.25581        8.33774       -1.07886
H          3.75515        9.35734       -3.43393
H          2.42482       10.76383       -5.32914
H          0.72569       11.13759       -4.99655
H          1.17025        9.55739       -5.67716
H         -0.90017       10.73930       -0.61991
H         -3.79993       11.47510        2.75106
H         -4.59837       13.68946        2.87974
H         -4.13025       14.25675       -1.29818
H         -2.28515       13.05181       -0.48674
H         -6.39854       15.53760       -0.82080
H         -8.80641       19.55669       -2.30437
H        -10.09338       18.15716       -4.07060
H        -10.95766       15.50690       -4.28638
H        -10.17857       14.33828       -3.20537
H         -9.26196       15.05374       -4.54215
H         -3.27682       18.91708        2.89485
H         -2.50080       20.08990        5.11579
H         -3.56566       21.45905        7.14178
H         -5.29715       21.20149        7.42150
H         -4.74861       22.49772        6.33714
H         -6.99808       21.82307        2.79124
H         -8.59834       23.77079        1.75376
H        -13.67684       21.40173       -0.91421
H        -13.09579       26.34039       -0.37294
H        -15.06440       26.71587       -1.79864
H        -16.91992       25.82881       -3.14984
H        -17.22459       23.38262       -3.41456
H        -15.66243       21.81331       -2.33992
