106

C          5.89494       -0.68741       -0.79827
F          7.18350       -0.68899       -0.42858
C          5.25961        0.47593       -1.21078
C          6.01915        1.74521       -1.27418
O          7.20302        1.82290       -0.99677
O          5.31555        2.82708       -1.66848
C          3.91825        0.38994       -1.55729
F          3.25066        1.48482       -1.95446
C          3.22445       -0.82221       -1.49684
F          1.93008       -0.79721       -1.84601
C          3.84088       -2.01161       -1.08599
C          5.20482       -1.90160       -0.74606
F          5.91914       -2.96469       -0.34966
C          3.07119       -3.28270       -1.00118
C          1.72242       -3.55147       -1.29856
C          1.37905       -4.89933       -1.03589
C          2.45840       -5.59259       -0.55337
S          3.85542       -4.73143       -0.42654
C          2.07299       -6.90671       -0.24833
C          0.74325       -7.06479       -0.54242
C          0.22307       -5.79997       -1.08288
C         -1.02017       -5.53514       -1.52828
C         -2.03803       -6.52685       -1.52344
N         -2.86447       -7.34015       -1.52348
C         -1.37307       -4.25845       -2.04555
N         -1.65774       -3.21660       -2.47046
C          0.30934       -8.36895       -0.20779
C          1.34892       -9.15733        0.31903
S          2.81688       -8.21783        0.42515
C          1.33552      -10.56854        0.80020
C          2.42536      -11.47513        0.70923
C          2.33743      -12.84390        1.15075
N          3.41159      -13.65245        0.98099
C          4.57286      -13.16936        0.47900
C          4.66617      -11.86701        0.09298
N          3.59340      -11.04058        0.17849
C          5.86850      -11.28921       -0.41981
N          6.85831      -10.84107       -0.83462
C          5.65812      -14.09935        0.38586
N          6.55206      -14.83756        0.29399
C          1.16992      -13.38693        1.75033
C          0.06155      -12.50262        1.88149
C          0.14498      -11.07544        1.39740
N         -0.99626      -10.39768        1.61519
S         -2.07026      -11.42899        2.32492
N         -1.13509      -12.78458        2.42629
C          1.04627      -14.78687        2.24560
C         -0.06652      -15.64434        2.31895
C          0.27737      -16.92248        2.82835
C          1.62239      -16.98829        3.09693
S          2.45534      -15.57980        2.91282
C          1.94828      -18.27866        3.52908
C          0.80634      -19.04567        3.57509
C         -0.32996      -18.21838        3.15366
C         -1.63396      -18.56336        3.12014
C         -2.07657      -19.86001        3.50167
N         -2.43083      -20.91972        3.81444
C         -2.63124      -17.63518        2.72176
N         -3.44622      -16.87485        2.39212
C          1.09634      -20.35141        4.02421
C          2.46098      -20.50497        4.30230
S          3.34747      -19.05349        3.94563
C          3.18054      -21.67728        4.82846
C          4.34451      -21.53317        5.61941
C          4.99450      -22.63343        6.18777
C          4.46668      -23.89720        5.98969
C          3.31214      -24.04211        5.19382
C          2.67871      -22.96280        4.59910
S          2.74741      -25.73575        5.14211
C          3.97654      -26.12062        6.37483
C          3.90010      -27.24093        7.11398
C          2.92967      -28.30733        7.05752
C          1.59708      -28.29981        7.21564
C          0.53494      -27.30048        7.46120
C          0.61777      -26.12459        8.13402
C         -0.50245      -25.26575        8.34429
N         -1.40675      -24.55843        8.52304
C          1.79847      -25.67941        8.79652
N          2.70548      -25.28882        9.40727
C         -0.75189      -27.94375        7.02872
C         -0.50937      -29.30645        6.79446
C          0.91812      -29.60745        6.92181
O          1.42724      -30.70117        6.78054
C         -1.49622      -30.22393        6.46335
C         -2.79931      -29.75497        6.34785
C         -3.07256      -28.39332        6.53460
C         -2.05316      -27.48355        6.86349
N          4.89316      -25.08963        6.60138
C          6.30950      -25.25081        6.88495
H          4.36491        2.70378       -1.86527
H          1.03296       -2.79985       -1.66307
H         -0.70360       -8.73551       -0.32273
H         -1.05932      -15.34748        2.00131
H          0.37758      -21.14896        4.17492
H          4.74685      -20.54714        5.84479
H          5.85069      -22.46692        6.83260
H          1.79403      -23.12906        3.99352
H          4.65487      -27.39727        7.88350
H          3.41614      -29.26615        6.85681
H         -1.25358      -31.26988        6.30144
H         -3.60574      -30.44235        6.10190
H         -4.09540      -28.03450        6.42611
H         -2.33448      -26.44230        6.97540
H          6.52507      -26.20910        7.36745
H          6.68140      -24.46875        7.55489
H          6.88837      -25.21761        5.95382
