95

C         22.30635        2.93295       -5.57500
C         23.26141        3.56414       -6.35948
F         24.05659        2.82604       -7.14467
C         23.42331        4.94198       -6.31884
C         22.59768        5.71447       -5.49580
C         21.63210        5.10589       -4.67415
C         21.50983        3.68377       -4.70343
C         20.65254        3.02574       -3.81207
C         19.99051        3.76896       -2.85049
C         20.00827        5.17112       -2.91163
C         20.81624        5.85741       -3.80552
C         19.09433        5.73227       -1.88226
O         18.82266        6.90039       -1.70722
C         18.52468        4.53715       -1.15798
C         19.33629        3.38927       -1.57768
C         19.82584        2.41928       -0.76318
C         19.65042        2.49396        0.65049
N         19.54364        2.61161        1.79930
C         20.67760        1.37605       -1.22693
N         21.34281        0.51924       -1.63788
C         17.39190        4.60633       -0.43580
C         16.60092        3.49613        0.02740
C         16.32841        2.23526       -0.72650
N         15.48799        1.39364       -0.20275
C         15.08607        2.04022        0.91859
C         15.75216        3.32213        1.04606
C         15.18659        4.02828        2.24327
S         15.65392        5.45848        2.94070
C         14.08166        3.10278        2.65672
C         14.14068        1.91070        1.84170
N         13.10247        1.07505        2.11600
C         12.42756        1.73790        3.01125
C         12.98729        3.05037        3.40893
C         12.34000        4.06589        4.13079
S         11.15864        5.00763        3.32138
C         10.82655        5.98721        4.70210
C         11.54424        5.51214        5.79148
C         12.44328        4.44873        5.45188
C         13.34640        3.81476        6.37265
N         14.07294        3.29169        7.10195
C         11.40930        6.04834        7.11873
N         11.27748        6.46713        8.18962
C          9.88172        7.06812        4.63344
C          9.64343        7.75554        3.50171
C          8.68956        8.81404        3.37466
C          8.12055        9.68062        4.44052
N          7.16811       10.49675        4.08697
C          7.01896       10.22622        2.76463
C          8.00523        9.27090        2.32432
C          7.81074        9.01994        0.86273
S          8.86316        8.31355       -0.21148
C          6.46898        9.65011        0.62259
C          6.14729       10.45587        1.78902
N          4.96323       11.09418        1.62819
C          4.54740       10.62774        0.48793
C          5.42637        9.63488       -0.20863
C          5.02035        8.97277       -1.41335
C          5.26976        7.74937       -1.90413
C          4.71718        7.40987       -3.26858
O          3.82904        7.97800       -3.86927
C          5.50172        6.25615       -3.74461
C          5.36617        5.58348       -4.94627
C          6.27095        4.54914       -5.22509
C          7.35946        4.30225       -4.33525
C          8.30149        3.31878       -4.66159
C          8.13004        2.54202       -5.80131
C          7.03940        2.72780       -6.63981
C          6.12051        3.74154       -6.36362
F          9.02206        1.58354       -6.08266
C          7.45485        5.00396       -3.12023
C          6.46043        5.90890       -2.78618
C          6.10241        6.60412       -1.52189
C          6.22004        6.02224       -0.30283
C          5.53942        6.51585        0.84059
N          5.00244        6.91698        1.78634
C          6.97317        4.82834       -0.07753
N          7.59861        3.87524        0.11941
H         22.23023        1.84951       -5.62277
H         24.19929        5.40399       -6.92169
H         22.74475        6.79271       -5.47455
H         20.58202        1.94168       -3.83839
H         20.85373        6.94353       -3.78566
H         16.96401        5.59092       -0.23838
H         16.80679        2.06812       -1.70238
H         11.48475        1.39093        3.46044
H          9.35035        7.32417        5.54967
H         10.15823        7.49628        2.57911
H          8.51783        9.61324        5.46422
H          3.59223       10.91887        0.02373
H          4.35273        9.60271       -2.01154
H          4.56214        5.84318       -5.62947
H          9.16056        3.12283       -4.02544
H          6.91174        2.08250       -7.50341
H          5.27238        3.87762       -7.03200
H          8.28116        4.79715       -2.44492
