87

C          6.99123        6.39479        2.64781
C          7.49266        6.36001        3.93588
S          7.91734        4.76553        4.43443
C          7.40496        4.12303        2.96981
C          6.97620        5.09850        2.09209
C          6.61423        4.52092        0.81102
O          6.14347        5.07841       -0.16163
C          7.04176        3.06472        0.95278
C          7.26795        2.81598        2.40164
C          7.03210        1.69911        3.12490
C          7.31353        1.59209        4.52211
N          7.55647        1.46689        5.64757
C          6.36242        0.58155        2.54812
N          5.75267       -0.30262        2.11260
C          7.39916        2.44888       -0.19131
C          8.18623        1.26485       -0.33118
C          8.17579        0.35356       -1.39945
C          9.01250       -0.75739       -1.14568
C          9.64261       -0.62959        0.06916
S          9.42906        0.83151        0.81795
C         10.15740       -1.88508        0.44828
C          9.88301       -2.79964       -0.54241
C          9.26710       -2.10016       -1.67457
C          9.02295       -2.57210       -2.90820
C          8.45156       -1.74663       -3.91779
N          7.98940       -1.05768       -4.72846
C          9.37798       -3.90246       -3.27898
N          9.67127       -4.97829       -3.58448
C         10.00808       -4.13343       -0.07666
C         10.16333       -4.13177        1.31542
S         10.62932       -2.54513        1.89410
C          9.71506       -5.10675        2.33289
C         10.36791       -5.34859        3.55214
C          9.65978       -5.86417        4.70684
N         10.33246       -5.97697        5.87147
C         11.64628       -5.67734        5.91238
C         12.31608       -5.23432        4.80119
N         11.68573       -5.05088        3.62276
F         13.62910       -4.97494        4.86286
F         12.28874       -5.83476        7.07777
C          8.28221       -6.22631        4.66766
C          7.66843       -6.19216        3.38005
C          8.39009       -5.61033        2.19800
N          7.62600       -5.57983        1.08985
S          6.18108       -6.28470        1.46144
N          6.43185       -6.61246        3.05830
C          7.42517       -6.52611        5.85621
C          6.04299       -6.32420        6.02566
C          5.62764       -6.57197        7.35283
C          6.69487       -6.89676        8.15577
S          8.11427       -7.14096        7.34287
C          6.27531       -6.87998        9.50291
C          4.93159       -6.59504        9.53889
C          4.42290       -6.46960        8.17633
C          3.14071       -6.35368        7.77908
C          2.78947       -6.30231        6.40445
N          2.49522       -6.26657        5.28079
C          2.06263       -6.35745        8.71036
N          1.17947       -6.39038        9.46283
C          4.46449       -6.43843       10.85687
C          5.50941       -6.46251       11.78092
S          7.00257       -6.95764       10.99420
C          5.55642       -6.17953       13.18202
C          4.86870       -5.21009       13.81789
C          5.04336       -4.77004       15.24786
C          5.35133       -5.50356       16.34117
C          5.33667       -4.97916       17.66698
N          5.31561       -4.58327       18.75759
C          5.62713       -6.89732       16.25087
N          5.85096       -8.03168       16.15743
C          4.59796       -3.40838       15.26254
C          3.97059       -3.05907       14.09132
C          3.50111       -1.72977       14.07026
C          3.84600       -1.08369       15.24167
S          4.70668       -2.11171       16.32911
C          3.96225       -4.15923       13.15518
O          3.34464       -4.18884       12.11184
H          6.67029        7.29848        2.14388
H          7.63646        7.18974        4.61520
H          7.12744        2.92881       -1.13416
H          7.50695        0.46152       -2.24903
H          9.71264       -5.01938       -0.62803
H          5.39852       -5.94153        5.24288
H          3.44245       -6.21384       11.12960
H          6.30654       -6.74629       13.72886
H          2.97041       -1.26626       13.24669
H          3.64517       -0.05571       15.51310
