96

C         -6.53832       -1.80191        4.02308
C         -7.81799       -2.53424        4.32972
O         -8.21668       -3.59737        3.90288
C         -8.55942       -1.69095        5.27351
C         -7.80697       -0.56251        5.63453
C         -6.46993       -0.64509        4.96325
C         -5.39354        0.13218        5.24779
C         -5.42887        1.19871        6.19230
N         -5.44777        2.07601        6.95237
C         -4.11479       -0.05429        4.64654
N         -3.07332       -0.17622        4.14997
C         -8.40274        0.37172        6.47578
C         -9.70729        0.14672        6.94754
C        -10.42020       -0.99911        6.57299
C         -9.85070       -1.93636        5.72206
Cl       -12.02000       -1.23341        7.15808
C         -5.73174       -2.12524        2.99668
C         -5.95635       -3.21168        2.10396
C         -6.63963       -3.22477        0.88580
C         -6.55157       -4.49473        0.26433
C         -5.81627       -5.38006        1.01807
S         -5.23816       -4.74524        2.43611
C         -5.80302       -6.63265        0.36280
C         -6.55305       -6.55005       -0.78572
C         -7.01028       -5.16897       -0.94930
C         -7.63663       -4.62329       -2.00861
C         -7.97016       -5.39045       -3.15382
N         -8.23096       -6.02203       -4.08997
C         -7.93407       -3.23810       -2.06010
N         -8.16138       -2.09776       -2.09777
C         -6.66635       -7.80847       -1.42816
C         -5.99467       -8.81654       -0.72431
S         -5.09626       -8.10723        0.60260
C         -5.89114      -10.21182       -1.06011
C         -5.77699      -11.24178       -0.20129
C         -5.45939      -12.60269       -0.60021
C         -4.91281      -13.32394        0.39589
C         -4.78879      -12.56868        1.63359
S         -5.85403      -11.17314        1.54257
C         -3.90332      -12.76425        2.62958
C         -2.89885      -13.80536        2.70973
C         -1.94071      -13.56062        3.61829
C         -2.10833      -12.30194        4.32268
S         -3.68533      -11.63967        3.97024
C         -1.16186      -11.75913        5.11062
C         -1.22596      -10.47918        5.75167
C         -1.82844       -9.28854        5.34110
C         -1.61131       -8.24068        6.25418
C         -0.88142       -8.65094        7.34446
S         -0.38665      -10.23710        7.27410
C         -0.76979       -7.56177        8.24085
C         -1.41768       -6.47327        7.69901
C         -1.97054       -6.83318        6.40458
C         -2.64402       -6.05722        5.53644
C         -2.96660       -4.69967        5.82477
N         -3.22923       -3.60482        6.10556
C         -3.02191       -6.58281        4.27825
N         -3.26087       -7.06625        3.25353
C         -1.35881       -5.34448        8.53304
C         -0.76276       -5.65335        9.75474
S         -0.11083       -7.27917        9.73983
C         -0.58309       -4.85080       10.91572
C         -1.43868       -3.91767       11.36381
C         -0.88377       -2.96438       12.38231
O          0.12302       -3.08284       13.04887
C         -1.77336       -1.79547       12.36777
C         -2.83897       -1.99383       11.47075
C         -2.75670       -3.39600       10.95094
C         -3.81242       -4.08535       10.44930
C         -4.99636       -3.45387        9.96800
N         -5.93869       -2.93482        9.53118
C         -3.85508       -5.51022       10.40261
N         -3.95095       -6.66543       10.36889
C         -3.75859       -0.96443       11.31288
C         -3.62067        0.20397       12.07901
C         -2.55862        0.35434       12.98101
C         -1.60552       -0.64543       13.12508
Cl        -2.44529        1.78647       13.92534
H         -7.91726        1.28882        6.79008
H        -10.16695        0.87838        7.61057
H        -10.39026       -2.82365        5.40551
H         -4.84807       -1.54767        2.75668
H         -7.16545       -2.36095        0.51037
H         -7.22691       -8.01658       -2.33117
H         -5.85438      -10.42981       -2.12517
H         -5.58143      -12.96430       -1.61189
H         -4.54620      -14.33315        0.27831
H         -2.90604      -14.67914        2.07413
H         -1.09790      -14.21533        3.79286
H         -0.23944      -12.31678        5.25915
H         -2.38877       -9.21076        4.41902
H         -1.77153       -4.36983        8.31054
H          0.36932       -4.97858       11.43488
H         -4.60196       -1.01509       10.63383
H         -4.36147        0.99592       11.97565
H         -0.76910       -0.54478       13.80968
