108

C          0.78299        1.08594        1.02274
C          1.87731        1.86769        1.14498
C          3.02519        1.68669        0.32942
N          3.95425        1.54145       -0.35344
C          1.98635        2.84270        2.18005
N          2.10231        3.61037        3.04228
C          0.66990       -0.15882        0.24165
C         -0.16297       -1.03514        0.95991
C         -0.46475       -2.30855        0.51846
C          0.00200       -2.68330       -0.74919
C          0.75201       -1.75941       -1.53959
C          1.10968       -0.50330       -1.02226
C          1.09875       -2.10549       -2.85148
C          0.74429       -3.34830       -3.37547
C          0.06009       -4.26985       -2.58728
C         -0.30863       -3.94100       -1.28198
C         -0.80967       -0.30809        2.08065
O         -1.58052       -0.75103        2.90315
C         -0.41314        1.12215        1.85665
C         -1.34146        2.07681        2.02906
C         -1.32421        3.32620        1.33265
C         -0.87675        3.63839        0.04050
C         -1.06783        5.00065       -0.26798
C         -1.70322        5.65571        0.76062
S         -2.05584        4.71839        2.08400
C         -1.90775        6.99719        0.38368
C         -1.39968        7.19175       -0.88202
C         -0.82545        5.93859       -1.36741
C         -0.19403        5.70586       -2.53908
C         -0.00724        6.73510       -3.50192
N          0.14263        7.59358       -4.26926
C          0.34035        4.42482       -2.84415
N          0.77743        3.36636       -3.04738
C         -1.58883        8.52116       -1.31327
C         -2.24060        9.27876       -0.33747
S         -2.59369        8.33692        1.07907
C         -2.63404       10.66633       -0.40986
C         -2.74384       11.58139        0.64043
C         -3.18216       12.83970        0.17568
C         -3.38286       12.82602       -1.18452
S         -3.06868       11.38042       -1.93303
C         -3.81749       14.09975       -1.59483
C         -3.89869       14.92515       -0.49965
C         -3.49509       14.17265        0.69563
C         -3.42239       14.60077        1.97110
C         -3.76634       15.93092        2.32921
N         -4.05348       17.01855        2.62319
C         -2.99681       13.74395        3.02599
N         -2.64722       13.03985        3.87744
C         -4.33297       16.21919       -0.86823
C         -4.57338       16.32848       -2.25056
S         -4.20870       14.79721       -3.04163
C         -5.00731       17.46874       -3.03171
C         -5.74152       17.27204       -4.14823
C         -6.17158       18.34956       -4.99782
C         -5.84939       19.75027       -4.70885
C         -5.15470       20.15482       -3.64720
S         -4.52437       19.06294       -2.44546
C         -6.42175       20.51419       -5.74591
C         -7.07185       19.68231       -6.62627
C         -7.65870       20.36250       -7.70468
C         -7.41821       21.72521       -7.58632
S         -6.49182       22.12677       -6.17265
C         -6.90482       18.32921       -6.15079
C         -7.45315       17.16950       -6.81571
C         -6.69972       16.15479       -7.27001
C         -7.25587       14.97802       -7.90320
C         -6.58344       13.92349       -8.38805
C         -7.35050       12.66466       -8.65870
O         -8.54027       12.53388       -8.84705
C         -6.35809       11.57827       -8.56606
C         -5.07264       12.09864       -8.34597
C         -4.02160       11.21586       -8.12757
C         -4.25518        9.82281       -8.20228
C         -5.54968        9.32878       -8.50140
C         -6.62105       10.22194       -8.65492
C         -5.83602        7.92878       -8.65779
N         -6.15336        6.82151       -8.79265
C         -3.10827        8.88398       -8.06011
O         -3.04117        7.83825       -8.67832
O         -2.15445        9.27596       -7.19482
C         -5.15889       13.58143       -8.48512
C         -4.16789       14.37163       -8.96579
C         -4.43926       15.64807       -9.53841
N         -4.66092       16.66392      -10.05046
C         -2.81715       13.93373       -9.07129
N         -1.72424       13.54623       -9.11347
H         -1.10637       -2.95567        1.10943
H          1.66629        0.20015       -1.63691
H          1.63157       -1.40081       -3.48790
H          1.00302       -3.59553       -4.40204
H         -0.20198       -5.24268       -2.99539
H         -0.85763       -4.67195       -0.69191
H         -2.23675        1.84455        2.60748
H         -0.45679        2.90191       -0.63193
H         -1.27971        8.93399       -2.26638
H         -2.50980       11.32351        1.66685
H         -4.47496       17.05451       -0.19159
H         -6.04013       16.27866       -4.46318
H         -4.95880       21.21117       -3.49102
H         -8.20751       19.91703       -8.52442
H         -7.72870       22.51515       -8.25678
H         -8.53363       17.17291       -6.94737
H         -5.62487       16.20641       -7.12306
H         -8.34811       14.92497       -7.89698
H         -3.01612       11.58025       -7.94651
H         -7.63382        9.87370       -8.85332
H         -2.28187       10.08382       -6.66788
