100

C         -2.12531        0.18950        0.18770
S         -1.16866        0.82829       -1.06361
C         -0.16122        1.69808        0.03491
C         -0.57954        1.50047        1.34824
C         -1.74323        0.64571        1.43156
C         -2.44139        0.33283        2.73064
S         -4.05778        1.19850        2.77984
C         -1.59223        0.72645        3.95383
C         -0.90039        2.08419        3.78784
C          0.05016        2.07650        2.59014
C          0.88761        2.48572       -0.52904
C          2.04122        2.71449        0.11619
C          3.04380        3.56483       -0.42667
C          3.37197        3.84488       -1.75467
C          4.40231        4.80203       -1.83652
C          4.82868        5.19649       -0.58899
S          4.06290        4.45202        0.67857
C          5.81548        6.19137       -0.73668
C          6.00619        6.42714       -2.07799
C          5.14797        5.53642       -2.85716
C          5.06700        5.39811       -4.19496
C          4.18359        4.45957       -4.79572
N          3.46503        3.69732       -5.29592
C          5.86388        6.15667       -5.09474
N          6.49009        6.74086       -5.87790
C          6.91622        7.48035       -2.28639
C          7.43231        7.97654       -1.08053
S          6.71712        7.14194        0.28161
C          8.33164        9.05821       -0.80432
C          9.30789        9.48873       -1.61856
C         10.04583       10.72230       -1.42433
C         10.60454       11.18054       -2.55871
C         10.34189       10.31851       -3.69832
S          9.81115        8.74608       -3.10930
C         10.31704       10.65793       -4.99986
C         10.57755       11.95873       -5.58053
C         10.14886       12.07532       -6.84868
C          9.53390       10.86880       -7.37370
S          9.74878        9.56034       -6.24619
C          8.85216       10.81154       -8.53163
C          8.18503        9.65547       -9.05759
C          8.44896        8.28743       -8.92109
C          7.47444        7.49198       -9.55179
C          6.56996        8.26005      -10.24430
S          6.78778        9.89897      -10.09059
C          5.65018        7.40508      -10.88803
C          5.94821        6.10132      -10.56399
C          7.13788        6.07904       -9.70781
C          7.77684        5.01199       -9.18833
C          8.93883        5.14048       -8.38066
N          9.90410        5.20736       -7.73504
C          7.32813        3.68711       -9.43908
N          6.95839        2.60426       -9.63870
C          5.00519        5.20517      -11.11823
C          4.05841        5.86632      -11.91027
S          4.36381        7.58953      -11.91760
C          2.92792        5.28842      -12.63391
S          1.48007        6.19699      -12.84657
C          0.63174        4.91324      -13.60026
C          1.42939        3.78059      -13.64837
C          2.79817        4.02808      -13.21772
C          3.86094        2.95175      -13.35502
S          5.26710        3.56030      -14.36025
C          3.34835        1.65447      -14.01879
C          1.91706        1.32246      -13.60222
C          0.97834        2.41756      -14.09856
C         -0.71624        5.14532      -14.01212
C         -1.28059        4.50786      -15.04652
H         -2.95320       -0.46538       -0.04954
H         -2.65390       -0.74092        2.78561
H         -3.59555        2.39677        2.39312
H         -0.81324       -0.03487        4.09831
H         -2.19361        0.72175        4.87097
H         -0.33298        2.32364        4.69474
H         -1.64526        2.87876        3.66373
H          0.92707        1.46553        2.84122
H          0.39641        3.10054        2.41369
H          0.71155        2.91169       -1.51482
H          2.23239        2.28740        1.09441
H          2.86200        3.37746       -2.58824
H          7.17531        7.89016       -3.25436
H          8.14807        9.61440        0.11301
H         10.07309       11.24771       -0.47999
H         11.13860       12.11630       -2.63408
H         11.03701       12.76745       -5.03052
H         10.22659       12.98530       -7.42812
H          8.74080       11.73184       -9.10186
H          9.29114        7.90313       -8.36235
H          4.99063        4.13798      -10.94893
H          4.23180        2.68421      -12.36151
H          4.51907        4.13945      -15.31307
H          4.00691        0.81925      -13.75013
H          3.36656        1.72876      -15.11516
H          1.85378        1.22712      -12.51109
H          1.61281        0.36154      -14.03199
H         -0.03128        2.20898      -13.72571
H          0.94677        2.39580      -15.19409
H         -1.30007        5.89657      -13.48397
H         -0.75552        3.78291      -15.65666
H         -2.30724        4.71747      -15.32942
