78

C          4.06054        1.29666        2.74974
C          3.55356        0.09558        3.02976
C          3.65590       -0.72712        1.87316
C          4.29122        0.06808        0.80903
O          4.56472       -0.26847       -0.32130
N          4.50061        1.29935        1.44113
C          3.14541       -1.89520        2.22299
O          2.68340       -1.94624        3.56753
C          2.93274       -0.68678        4.09606
O          2.68468       -0.30724        5.22426
C          3.02885       -3.04830        1.40695
C          2.87668       -3.14306        0.01883
C          2.82952       -4.48555       -0.41202
C          2.94503       -5.36041        0.64348
S          3.08808       -4.63970        2.13111
C          2.91740       -6.68172        0.14742
C          2.78547       -6.64089       -1.22272
C          2.70955       -5.24337       -1.65804
C          2.55568       -4.76609       -2.90885
C          2.44570       -5.63487       -4.02839
N          2.35229       -6.34872       -4.93852
C          2.47559       -3.37275       -3.17976
N          2.39290       -2.23765       -3.41043
C          2.76809       -7.93936       -1.77983
C          2.88050       -8.92077       -0.79074
S          3.00975       -8.20858        0.79370
C          2.89774      -10.36075       -0.96362
C          2.46669      -11.33586       -0.05984
C          2.62846      -12.63612       -0.58837
C          3.17902      -12.60494       -1.84990
S          3.50297      -11.08223       -2.42903
C          3.30544      -13.92824       -2.32660
C          2.83138      -14.79594       -1.36881
C          2.37816      -14.02785       -0.20570
C          1.85113      -14.49046        0.94491
C          1.66515      -15.88180        1.17418
N          1.51505      -17.01675        1.35554
C          1.44802      -13.61409        1.99026
N          1.11758      -12.89703        2.84032
C          2.91749      -16.13912       -1.79900
C          3.46215      -16.23416       -3.08433
S          3.85744      -14.65583       -3.71194
C          3.69998      -17.43480       -3.86845
C          4.25071      -17.53392       -5.15109
C          4.32597      -18.87728       -5.58242
C          3.83831      -19.73923       -4.62684
S          3.28927      -19.00994       -3.24251
C          3.95070      -21.06231       -5.10253
C          4.50693      -21.03851       -6.36028
C          4.77467      -19.65113       -6.74362
C          5.30639      -19.19735       -7.89558
C          5.69284      -20.07945       -8.94173
N          6.01798      -20.79878       -9.79278
C          5.51055      -17.80975       -8.12635
N          5.67648      -16.67577       -8.30742
C          4.65244      -22.33933       -6.88737
C          4.19861      -23.31396       -5.99252
S          3.60062      -22.57614       -4.52225
C          4.16591      -24.72232       -6.12868
C          4.03512      -25.41968       -7.25969
C          4.04853      -26.80373       -6.92661
C          4.20769      -26.93246       -5.47064
O          4.26759      -27.94508       -4.81022
N          4.27098      -25.59947       -5.06427
C          3.90892      -27.45208       -8.06627
O          3.79366      -26.61897       -9.19678
C          3.86750      -25.31503       -8.71007
O          3.80024      -24.29447       -9.36744
H          4.14759        2.16400        3.38818
H          4.93228        2.08308        0.96751
H          2.81347       -2.26906       -0.61988
H          2.67205       -8.17977       -2.83190
H          2.04907      -11.08781        0.90883
H          2.60539      -17.00837       -1.23216
H          4.57507      -16.66786       -5.71568
H          5.06800      -22.59038       -7.85712
H          4.38324      -25.32126       -4.09865
H          3.86737      -28.50868       -8.26511
