116

C         -3.25267       -1.69202        0.61482
C         -2.05775       -1.93124        0.02181
C         -1.27140       -3.08340        0.30798
N         -0.62842       -4.01598        0.54289
C         -1.52657       -1.07357       -0.98228
N         -1.09119       -0.36136       -1.78971
C         -3.96016       -2.58391        1.57902
C         -5.31310       -2.22946        1.59326
C         -6.26092       -2.83086        2.41180
C         -5.81726       -3.83244        3.30507
C         -4.46008       -4.18464        3.30586
C         -3.51136       -3.57336        2.44726
S         -4.13410       -5.41041        4.47731
C         -5.75654       -5.45776        4.99406
C         -6.54571       -4.57597        4.29442
C         -5.55455       -1.06119        0.72850
O         -6.63356       -0.57907        0.45329
C         -4.19230       -0.59168        0.31281
C         -3.93081        0.68377       -0.01608
C         -4.91437        1.77778       -0.10960
C         -5.60369        2.11635       -1.27286
C         -6.45143        3.28526       -1.36351
N         -7.02276        3.55581       -2.56059
C         -6.80219        2.73336       -3.62031
C         -6.03146        1.61132       -3.49495
N         -5.41492        1.30288       -2.33271
C         -5.82640        0.68955       -4.56493
N         -5.68250       -0.05508       -5.44585
C         -7.37022        3.15431       -4.86796
N         -7.79472        3.49606       -5.89030
C         -6.68896        4.16712       -0.26229
C         -6.00422        3.81091        0.95237
C         -5.10694        2.60296        1.02190
N         -4.53224        2.42906        2.22621
S         -5.08388        3.64261        3.20137
N         -6.02659        4.46662        2.12802
C         -7.55020        5.40120       -0.32429
C         -7.67778        6.17579       -1.50249
C         -8.42082        7.35742       -1.51969
C         -9.10954        7.77165       -0.36870
C         -9.04211        7.03346        0.79423
C         -8.26905        5.86516        0.80644
C         -9.76469        9.03013       -0.61982
C         -9.42562        9.48162       -1.91110
C         -8.65447        8.36645       -2.66347
C         -7.33898        8.94408       -3.25948
C         -6.45271        7.97928       -4.04694
C         -9.56606        7.76505       -3.77420
C        -10.87585        7.12997       -3.30132
C         -9.79299       10.76018       -2.32696
C        -10.55234       11.56458       -1.45582
C        -11.00353       11.02872       -0.23288
C        -10.59480        9.77014        0.20107
C        -10.87368       12.95291       -1.82558
C        -11.03622       13.93567       -0.92139
C        -11.29014       15.32281       -1.24649
C        -10.50477       16.12152       -1.98242
C        -10.80665       17.49612       -2.30188
C        -10.01762       17.99824       -3.26334
C         -9.05916       17.03502       -3.78095
S         -8.99992       15.63491       -2.72008
C         -8.41465       17.10471       -4.95968
C         -8.53472       18.16859       -5.93681
C         -8.07464       17.83829       -7.15224
C         -7.54167       16.49556       -7.21967
S         -7.43628       15.79791       -5.61821
C         -7.22193       15.86379       -8.36117
C         -6.77500       14.52182       -8.37644
S         -5.11443       14.06637       -8.28032
C         -5.48465       12.38716       -8.16518
C         -6.82602       12.25358       -8.25394
C         -7.57944       13.41329       -8.41167
S         -9.36689       13.20232       -8.56567
C         -9.05017       11.48991       -8.31246
C        -10.17976       10.57598       -8.29686
O        -11.26389       10.73494       -8.84336
O         -9.79726        9.43620       -7.65011
C        -10.48732        8.24149       -8.03000
C         -9.79349        7.69746       -9.26642
C         -7.69103       11.14149       -8.18213
H         -7.29665       -2.50410        2.39558
H         -2.47029       -3.86669        2.52741
H         -6.05697       -6.12760        5.78869
H         -7.60533       -4.45591        4.48637
H         -2.91286        1.03454       -0.16135
H         -7.19451        5.86755       -2.41969
H         -9.55062        7.35836        1.69593
H         -8.23736        5.32586        1.75000
H         -6.73025        9.39000       -2.46195
H         -7.58876        9.76553       -3.94445
H         -5.97891        7.23982       -3.39932
H         -5.63784        8.52958       -4.52835
H         -6.99971        7.45837       -4.83695
H         -9.02737        6.98523       -4.32355
H         -9.81258        8.54824       -4.50360
H        -10.68697        6.22776       -2.71078
H        -11.47742        6.83205       -4.16618
H        -11.48056        7.81749       -2.70385
H         -9.47133       11.14165       -3.29218
H        -11.66292       11.60386        0.41195
H        -10.92080        9.39688        1.16488
H        -10.91312       13.16901       -2.89093
H        -10.97823       13.73783        0.14605
H        -12.20438       15.72265       -0.81267
H        -11.61333       18.04165       -1.83272
H        -10.12523       18.99853       -3.65511
H         -8.99771       19.11955       -5.71789
H         -8.12753       18.48988       -8.01270
H         -7.34623       16.36113       -9.31783
H         -4.71385       11.64086       -8.03527
H        -11.55534        8.41422       -8.19957
H        -10.39140        7.53012       -7.20339
H         -9.88776        8.39998      -10.10190
H        -10.20687        6.73313       -9.56751
H         -8.71945        7.58445       -9.07776
H         -7.36476       10.11688       -8.04172
