112

C          5.02233        7.96004        1.39672
C          3.96332        8.85545        1.33332
F          3.70348        9.63893        2.38800
C          3.16021        8.93524        0.20444
C          3.40411        8.08880       -0.88046
C          4.44154        7.14191       -0.82995
C          5.27309        7.09316        0.32659
C          6.29758        6.13860        0.42816
C          6.43572        5.17460       -0.56172
C          5.60277        5.22974       -1.68844
C          4.63746        6.21170       -1.86400
C          5.80386        4.03810       -2.53605
O          5.24488        3.79948       -3.58633
C          6.82522        3.19249       -1.82872
C          7.17146        3.87430       -0.57092
C          7.41868        3.29049        0.62259
C          6.75333        2.09083        0.99021
N          6.10505        1.18638        1.33410
C          8.23113        3.93324        1.60394
N          8.92131        4.46354        2.36793
C          7.34034        2.11042       -2.44307
C          8.45788        1.24304       -2.05348
C          8.44774       -0.05432       -2.43423
C          9.50318       -0.97861       -2.08724
C         10.65544       -0.56303       -1.27384
C         10.87681        0.68096       -0.85671
S          9.83368        2.00759       -1.25060
C         11.45151       -1.70678       -1.07836
C         10.88995       -2.77388       -1.73495
C         11.63594       -3.95674       -1.59528
C         12.75239       -3.72211       -0.80153
S         12.86216       -2.07532       -0.26479
C          9.66285       -2.31274       -2.35516
C          8.78232       -3.18217       -3.10703
C          7.49228       -3.37943       -2.79233
C          6.63492       -4.32603       -3.54790
N          7.06630       -5.39682       -4.16818
C          5.92276       -5.98274       -4.61783
C          4.77252       -5.18825       -4.25769
C          3.54554       -5.87826       -4.75449
O          2.38364       -5.55880       -4.69646
C          4.09840       -7.10480       -5.35582
C          5.53084       -7.09421       -5.23719
N          6.03556       -8.23840       -5.76804
C          4.96640       -8.87095       -6.17162
C          3.66567       -8.20827       -5.94958
C          5.14019       -4.11459       -3.56240
C          4.38830       -3.07126       -2.92777
C          3.04977       -2.96666       -2.93325
C          2.31410       -1.95269       -2.20833
C          2.41740       -1.88613       -0.86741
C          1.72070       -0.88861       -0.10424
C          1.03903        0.22796       -0.76807
C          0.81149        0.30950       -2.07816
S          1.28952       -0.92972       -3.19774
C          0.66759        1.12575        0.24471
C          1.00568        0.60745        1.47339
C          0.63426        1.45895        2.52962
C          0.08552        2.63424        2.02669
S         -0.02270        2.64355        0.29812
C          1.65934       -0.67189        1.24598
C          2.28458       -1.47947        2.28188
C          2.08439       -2.78364        2.56337
C          1.15788       -3.63835        1.85007
C          0.02582       -4.18696        2.31127
C         -1.05968       -4.32505        1.28375
O         -0.95164       -4.54254        0.09629
C         -2.30272       -4.03588        2.01871
C         -3.51120       -3.66224        1.45220
C         -4.54764       -3.27632        2.31036
C         -4.36064       -3.35351        3.72253
C         -5.41860       -2.99737        4.56899
C         -6.61022       -2.51823        4.03577
C         -6.78326       -2.38873        2.66482
C         -5.75897       -2.77960        1.80145
F         -7.60044       -2.15671        4.86193
C         -3.11338       -3.73691        4.25837
C         -2.06314       -4.03561        3.40269
C         -0.61148       -4.29562        3.62470
C         -0.02428       -4.75732        4.75309
C          1.33728       -5.17811        4.77658
N          2.44434       -5.52896        4.80539
C         -0.74144       -4.96038        5.96476
N         -1.32877       -5.12424        6.95162
H          5.61669        7.92489        2.30616
H          2.33839        9.64421        0.18353
H          2.75474        8.15411       -1.75136
H          6.90765        6.12709        1.32576
H          4.00148        6.19722       -2.74567
H          6.88924        1.82827       -3.39890
H          7.61199       -0.45572       -2.99965
H         11.76023        0.91541       -0.27033
H         11.39638       -4.92218       -2.02195
H         13.51589       -4.42686       -0.50035
H          9.23795       -3.72473       -3.93513
H          7.05194       -2.87785       -1.93861
H          4.97904       -9.85830       -6.65734
H          2.67626       -8.54454       -6.18648
H          4.95306       -2.31810       -2.38386
H          2.41405       -3.65289       -3.48157
H          3.06040       -2.57633       -0.33031
H          0.28163        1.15885       -2.49560
H          0.76073        1.27039        3.58679
H         -0.26601        3.49859        2.57358
H          3.01123       -0.93426        2.88529
H          2.68135       -3.23211        3.35344
H          1.30902       -3.65868        0.77273
H         -3.61290       -3.61477        0.37100
H         -5.32704       -3.06745        5.64952
H         -7.71230       -1.98299        2.27701
H         -5.90624       -2.66934        0.72852
H         -2.98823       -3.73174        5.33646
