86

C         -9.01346        0.95664       -4.40785
C        -10.30091        0.77504       -4.91942
C        -11.10068       -0.28349       -4.47915
C        -10.63171       -1.17558       -3.51206
C         -9.36671       -0.97789       -2.96776
C         -8.54713        0.09068       -3.42376
C         -7.22036        0.00645       -2.72868
C         -6.33510        1.01662       -2.55182
C         -6.52892        2.32171       -3.09515
N         -6.67989        3.38148       -3.53857
C         -5.17757        0.87376       -1.73352
N         -4.23189        0.74864       -1.07378
C         -7.18230       -1.36020       -2.11311
C         -8.60610       -1.74965       -1.93508
C         -9.15109       -2.42882       -0.89819
C         -8.35755       -2.89251        0.18862
N         -7.70483       -3.27566        1.06763
C        -10.55092       -2.65476       -0.76929
N        -11.69014       -2.85649       -0.66371
C         -6.06579       -2.12140       -2.05245
C         -5.79911       -3.53103       -1.73149
N         -4.60176       -3.83601       -1.16863
N         -4.17228       -5.17648       -0.84215
C         -4.90342       -6.29142       -1.09543
C         -6.14765       -6.06949       -1.74223
C         -6.60481       -4.64666       -2.07512
N         -7.79288       -4.62673       -2.71008
S         -8.30170       -6.19438       -2.85315
N         -7.04699       -6.99560       -2.13116
C         -4.39593       -7.60313       -0.68651
C         -4.60346       -8.87625       -1.23274
C         -4.04230       -9.89272       -0.41528
C         -3.42361       -9.36269        0.69600
S         -3.42296       -7.70019        0.76048
C         -3.14798      -10.39577        1.62260
C         -3.50034      -11.60376        1.06089
C         -4.16166      -11.37860       -0.31502
C         -5.41184      -11.94436       -0.51015
C         -6.12411      -11.64983        0.79993
N         -6.71501      -11.40549        1.88675
C         -5.36183      -13.36625       -1.04507
N         -5.32035      -14.54582       -1.48883
C         -3.66176      -12.61730        2.07166
C         -3.75333      -12.02593        3.34731
S         -3.06439      -10.41901        3.29809
C         -4.44752      -12.49220        4.57036
N         -4.94461      -11.58420        5.46405
N         -5.85282      -11.90775        6.56756
C         -6.30889      -13.15812        6.83541
C         -5.82204      -14.16905        5.96258
C         -4.87404      -13.83004        4.80098
N         -4.55700      -14.92105        4.07622
S         -5.29063      -16.22126        4.79193
N         -6.11628      -15.48146        6.02005
C         -7.29951      -13.42319        7.90515
C         -7.49320      -12.75057        9.06329
C         -8.71156      -12.81732        9.94424
C         -9.42897      -13.90927       10.30319
C         -9.10677      -15.21040        9.82586
N         -8.85444      -16.27093        9.43078
C        -10.51050      -13.86446       11.23343
N        -11.39009      -13.83979       11.98793
C         -8.89272      -11.41736       10.47516
C         -7.73281      -10.65937       10.15474
C         -7.68143       -9.29463       10.41314
C         -8.75753       -8.68793       11.06133
C         -9.88002       -9.43599       11.42667
C         -9.96275      -10.79813       11.11778
C         -6.73093      -11.56720        9.52569
C         -5.38435      -11.46333        9.63481
C         -4.74222      -10.31719       10.17691
N         -4.21399       -9.38172       10.61701
C         -4.52444      -12.55777        9.32100
N         -3.84812      -13.46995        9.07856
H         -8.41552        1.76409       -4.81611
H        -10.67961        1.45492       -5.68098
H        -12.09397       -0.41917       -4.90379
H        -11.26956       -2.00645       -3.22936
H         -5.11428       -1.65917       -2.31798
H         -5.19887       -9.04701       -2.12159
H         -4.04396      -13.61302        1.87447
H         -7.97773      -14.22740        7.62512
H         -6.84092       -8.67724       10.11345
H         -8.72495       -7.62164       11.27752
H        -10.70761       -8.94560       11.93729
H        -10.87985      -11.31280       11.38195
