102

C         -4.05804        3.30925       -0.80041
C         -3.88149        3.74493        0.51702
C         -3.35743        2.89023        1.49461
C         -2.97165        1.58991        1.16979
C         -3.10049        1.16900       -0.14734
C         -3.67314        2.01816       -1.13738
C         -3.84306        1.22735       -2.40409
C         -4.01168        1.69975       -3.66126
C         -4.11159        3.08800       -3.95232
N         -4.20286        4.22218       -4.19251
C         -4.03583        0.83410       -4.79253
N         -4.06524        0.11482       -5.70427
C         -3.65864       -0.19520       -1.98646
C         -2.80276       -0.14692       -0.77693
C         -1.77683       -0.97289       -0.46001
C         -1.40651       -2.06303       -1.29842
N         -1.08677       -2.95086       -1.97848
C         -0.93325       -0.74695        0.66593
N         -0.24142       -0.56294        1.57890
C         -4.45797       -1.19836       -2.40839
C         -4.62155       -2.46424       -1.76500
C         -4.53283       -2.82819       -0.41748
C         -4.67231       -4.21821       -0.24383
C         -5.05735       -4.82969       -1.41159
S         -5.11362       -3.83365       -2.73656
C         -5.26856       -6.19752       -1.15270
C         -4.96595       -6.46219        0.16212
C         -4.56546       -5.21992        0.81788
C         -4.13791       -5.03858        2.08205
C         -4.04063       -6.11304        3.00684
N         -3.95220       -6.98408        3.76745
C         -3.72704       -3.75514        2.53698
N         -3.39600       -2.68984        2.85554
C         -5.09224       -7.83563        0.45652
C         -5.50088       -8.57330       -0.66227
S         -5.81607       -7.49524       -2.01602
C         -5.66809      -10.00570       -0.78240
C         -5.45880      -10.55653       -1.99589
C         -5.47142      -11.97415       -2.23337
C         -5.99572      -12.87154       -1.37288
C         -6.59471      -12.33725       -0.07088
C         -5.93463      -10.97999        0.37313
N         -6.67471      -10.32329        1.47451
C         -7.94699      -10.52476        1.47394
C         -8.65391      -11.38228        0.47091
N         -8.05945      -12.24568       -0.27802
F         -9.98073      -11.25212        0.35292
F         -8.67647       -9.94246        2.43342
C         -5.98864      -14.26197       -1.76530
C         -6.88482      -15.27877       -1.40548
C         -6.57943      -16.49519       -2.05475
C         -5.47250      -16.37159       -2.86044
S         -4.75495      -14.88827       -2.84809
C         -5.27911      -17.56527       -3.57676
C         -6.28057      -18.43993       -3.23699
C         -7.11271      -17.84926       -2.19045
C         -8.08469      -18.44519       -1.47355
C         -8.44216      -19.80410       -1.69567
N         -8.70526      -20.91468       -1.90661
C         -8.75538      -17.76210       -0.42290
N         -9.29057      -17.20151        0.43924
C         -6.25429      -19.58142       -4.05399
C         -5.16447      -19.56891       -4.93211
S         -4.23153      -18.10542       -4.74335
C         -4.77879      -20.48928       -5.95654
C         -5.00080      -21.81939       -5.91483
C         -5.03783      -22.69811       -7.12059
C         -4.14246      -22.74322       -8.13492
C         -3.00750      -21.88248       -8.17682
N         -2.09558      -21.16615       -8.21264
C         -4.22817      -23.68949       -9.19432
N         -4.29626      -24.45965      -10.05987
C         -6.22365      -23.59777       -6.89540
C         -6.65468      -23.45264       -5.54504
C         -7.83009      -24.04194       -5.09924
C         -8.54498      -24.85147       -5.98024
C         -8.09784      -25.04596       -7.29228
C         -6.94690      -24.40514       -7.76368
C         -5.68611      -22.57145       -4.84087
C         -5.34381      -22.63397       -3.53169
C         -6.06004      -23.42129       -2.58880
N         -6.64867      -24.05076       -1.81042
C         -4.18932      -21.96716       -3.02261
N         -3.24508      -21.44826       -2.59409
H         -4.51950        3.99138       -1.50574
H         -4.17953        4.75476        0.79419
H         -3.26258        3.23933        2.52132
H         -2.60916        0.93761        1.95916
H         -5.12004       -1.03897       -3.25741
H         -4.34193       -2.11510        0.37250
H         -4.87102       -8.30729        1.40723
H         -5.19765       -9.97274       -2.87535
H         -5.04316      -12.25810       -3.19202
H         -6.41545      -13.06773        0.73040
H         -4.94700      -11.23189        0.78749
H         -7.73392      -15.10026       -0.75515
H         -6.99827      -20.36585       -4.04383
H         -4.38913      -20.02328       -6.86029
H         -8.22379      -23.88069       -4.10001
H         -9.46289      -25.33106       -5.64527
H         -8.66919      -25.68688       -7.96156
H         -6.67585      -24.54898       -8.80340
