124

C         -2.03244        2.48173       -0.31620
C         -1.21665        2.39813        0.75884
C         -0.49062        1.21028        1.06874
N          0.10287        0.24232        1.30264
C         -1.14595        3.44684        1.72074
N         -1.11455        4.27205        2.53505
C         -2.43578        1.33654       -1.16006
C         -3.77544        1.52033       -1.52667
C         -4.47370        0.58148       -2.26646
C         -3.76940       -0.53812       -2.74876
C         -2.36862       -0.64904       -2.51309
C         -1.71585        0.27710       -1.68663
C         -1.64265       -1.68018       -3.12536
C         -2.28976       -2.64383       -3.89611
C         -3.67138       -2.59125       -4.05583
C         -4.40494       -1.53937       -3.49913
C         -4.20353        2.89511       -1.15773
O         -5.30091        3.38566       -1.31281
C         -2.94508        3.57256       -0.66762
C         -2.76821        4.88358       -0.92003
C         -1.50464        5.57142       -0.91197
S         -1.46566        7.23001       -0.40344
C          0.26446        7.35651       -0.51157
C          0.78409        6.08158       -0.67889
C         -0.21430        5.21640       -1.28538
C          0.14537        4.04790       -1.98370
C         -0.59958        3.47168       -3.10749
O         -0.51280        2.32485       -3.49764
O         -1.22586        4.42661       -3.81224
C          1.47898        3.63194       -1.78249
C          2.42688        4.40788       -1.06633
C          2.13645        5.69039       -0.56230
O          3.10205        6.42568        0.05867
C          0.90356        8.66774       -0.49890
C          0.42481        9.85636        0.00515
C          1.29378       11.01488       -0.17700
C          1.14839       12.37477        0.22310
C         -0.02886       12.78428        1.04808
C         -0.80891       13.93392        1.02340
C         -1.89547       13.91328        1.94821
C         -1.97774       12.71795        2.62198
S         -0.55543       11.80589        2.38218
C         -3.07831       12.20510        3.49001
Cl        -2.99050       15.21863        2.09956
C          2.13342       13.32625       -0.13428
C          3.34284       12.94567       -0.72702
C          3.46614       11.60626       -1.20796
C          2.43502       10.66161       -0.91522
S          2.34467        8.98260       -1.33665
C          4.67168       11.21931       -2.02437
C          6.00331       11.61169       -1.93171
C          6.86780       11.00052       -2.89222
C          6.20834       10.08628       -3.67700
S          4.52534       10.19359       -3.42131
C          6.76992        9.11784       -4.66688
Cl         8.54043       11.35767       -2.97170
C          4.26685       14.06827       -0.65478
C          3.75230       15.27390       -0.18670
S          2.07649       15.05549       -0.05013
C          4.47118       16.55320       -0.02136
S          6.20724       16.50336       -0.27273
C          6.38055       18.19632       -0.45647
C          5.16700       18.80639       -0.22450
C          4.11447       17.87745        0.26445
C          2.89132       18.40820        0.77282
C          1.86266       17.79184        1.62774
O          0.75552       18.26329        1.82800
O          2.27137       16.71521        2.31142
C          2.74350       19.81411        0.57931
C          3.72811       20.66443        0.01545
C          4.99420       20.20121       -0.35294
O          5.95167       21.06011       -0.81895
C          7.70547       18.70829       -0.72457
C          8.18840       18.90421       -1.96508
C          9.59245       19.12958       -2.40401
C         10.55552       19.85994       -1.79062
C         11.83910       20.07544       -2.34516
N         12.89799       20.24872       -2.80220
C         10.31235       20.51393       -0.53112
N         10.13384       21.03476        0.48477
C          9.69799       18.50383       -3.75801
C          8.40095       18.23270       -4.20906
C          7.40343       18.60835       -3.20473
O          6.20522       18.65576       -3.39077
C          8.11121       17.56245       -5.38438
C          9.17685       17.09860       -6.15243
C         10.51513       17.37343       -5.75164
C         10.76667       18.08678       -4.55211
C         11.56225       16.88788       -6.55401
C         11.29818       16.12182       -7.69431
C          9.98605       15.83254       -8.05688
C          8.93044       16.32794       -7.29519
H         -5.51976        0.74317       -2.50939
H         -0.64363        0.19647       -1.52854
H         -0.56109       -1.73598       -3.01482
H         -1.71419       -3.43907       -4.36348
H         -4.17787       -3.36385       -4.62884
H         -5.48048       -1.51013       -3.65927
H         -3.63880        5.47078       -1.21774
H         -1.48112        3.99871       -4.65629
H          1.81487        2.70243       -2.24527
H          3.43414        4.00631       -0.96527
H          3.97319        6.07974       -0.19693
H         -0.53376        9.89668        0.50298
H         -0.64774       14.76292        0.34806
H         -3.32546       12.92107        4.27920
H         -2.83094       11.24919        3.96308
H         -3.97852       12.04391        2.88373
H          6.38518       12.29706       -1.19079
H          7.50727        9.59924       -5.31705
H          5.99857        8.67782       -5.30728
H          7.27083        8.29533       -4.14135
H          5.30418       13.98789       -0.93288
H          1.45058       16.41312        2.75916
H          1.81840       20.29041        0.91587
H          3.48382       21.72046       -0.08439
H          5.55791       21.94457       -0.89694
H          8.32980       18.81778        0.15312
H          7.07686       17.36041       -5.64984
H         11.79780       18.23820       -4.25042
H         12.59935       17.08765       -6.29227
H         12.11993       15.73987       -8.29587
H          9.78121       15.21847       -8.93006
H          7.91043       16.08733       -7.58999
