100

C          6.31618        3.61641        4.36873
C          5.36392        3.85259        3.45019
C          4.69376        2.77196        2.77376
C          4.99162        1.35947        3.06822
C          5.90225        0.95992        3.95372
S          6.88899        2.05390        4.88728
C          4.13630        0.58833        2.26319
C          3.35259        1.41784        1.50223
C          2.46957        0.72706        0.65967
C          2.62596       -0.64108        0.83777
S          3.84466       -1.03568        2.00999
C          3.70767        2.77951        1.83148
C          3.10748        3.94894        1.24408
C          1.78607        4.19642        1.25122
C          1.15690        5.39093        0.70058
C          1.69029        6.02127       -0.36291
C          1.10466        7.19952       -0.93280
C         -0.12319        7.79750       -0.40660
C         -0.81570        7.30962        0.62062
S         -0.34494        5.87620        1.48960
C         -0.37228        8.94406       -1.18428
C          0.61722        9.08749       -2.12978
C          0.43587       10.22140       -2.93917
C         -0.72002       10.89432       -2.56265
S         -1.54038       10.13469       -1.23670
C          1.53215        7.97889       -1.96801
C          2.73302        7.77367       -2.74341
C          2.99095        6.65951       -3.45081
C          4.20756        6.48750       -4.17202
C          5.31578        7.32846       -4.27800
C          6.33606        6.76492       -5.06853
C          5.94307        5.56325       -5.59209
S          4.44629        5.03519       -5.10891
C          6.96589        5.09330       -6.43180
C          8.00869        5.99303       -6.44923
C          7.68881        7.09603       -5.54154
C          8.44398        8.12913       -5.10302
C          7.88808        8.84357       -3.88198
N          7.42691        9.43626       -2.86902
C          9.74877        8.40544       -5.56056
N         10.82134        8.62702       -5.95352
C          9.05819        5.53076       -7.27555
C          8.76021        4.28506       -7.86289
S          7.17497        3.73119       -7.33360
C          9.54320        3.44788       -8.74508
C          8.90585        2.63863       -9.61786
C          9.59864        1.74595      -10.50041
C         11.05919        1.67512      -10.55139
C         11.87039        2.39164       -9.77611
S         11.29832        3.53839       -8.59436
C         11.37653        0.72732      -11.54421
C         10.21865        0.22439      -12.09004
C         10.44911       -0.73089      -13.09248
C         11.81556       -0.91398      -13.26185
S         12.76686        0.08114      -12.20364
C          9.11025        0.86018      -11.41720
C          7.72090        0.61306      -11.72064
C          6.81046        0.20242      -10.81937
C          5.39253       -0.00914      -11.09181
C          4.74038        0.76232      -11.98253
C          3.33742        0.61854      -12.24499
C          2.50776       -0.37756      -11.56367
C          2.95987       -1.21545      -10.63331
S          4.61866       -1.24905      -10.10412
C          1.20738       -0.23898      -12.08665
C          1.19417        0.76377      -13.02767
C         -0.07110        0.96831      -13.59853
C         -0.98495        0.07897      -13.04825
S         -0.27732       -0.96606      -11.85555
C          2.53070        1.30227      -13.10773
C          2.92973        2.37894      -13.97935
C          3.47201        3.52255      -13.53997
H          6.79250        4.46534        4.85234
H          5.08123        4.87498        3.21858
H          6.07121       -0.09717        4.13395
H          1.75776        1.16836       -0.02550
H          2.08873       -1.43918        0.34507
H          3.80945        4.65008        0.79909
H          1.11356        3.48625        1.73221
H          2.60208        5.65723       -0.82260
H         -1.71944        7.80600        0.95939
H          1.07796       10.54773       -3.74792
H         -1.13535       11.79552       -2.99210
H          3.44072        8.59695       -2.69725
H          2.26414        5.84950       -3.47985
H          5.34818        8.29044       -3.78771
H          9.99699        6.04484       -7.44801
H          7.82373        2.61868       -9.68994
H         12.94657        2.27736       -9.85928
H          9.69712       -1.26440      -13.65891
H         12.31640       -1.58108      -13.95007
H          7.44149        0.79037      -12.75673
H          7.12422        0.00435       -9.79410
H          5.25978        1.53438      -12.53935
H          2.28684       -1.92422      -10.16045
H         -0.32163        1.70307      -14.35196
H         -2.03735       -0.01885      -13.27603
H          2.76566        2.22845      -15.04308
H          3.63315        3.70908      -12.48136
H          3.76241        4.30412      -14.23356
