74

C         -1.48927        0.52584        2.57113
N         -0.43793        1.16257        3.09189
O         -0.97063        2.08373        3.97562
C         -2.33244        1.98310        3.98429
C         -3.02167        2.78715        4.95068
O         -4.17691        2.61497        5.33169
C         -2.71161        1.02610        3.06613
C         -4.09118        0.61025        2.67532
C         -5.20352        1.44642        2.68009
C         -6.35431        0.75446        2.24318
C         -6.08192       -0.56929        1.97424
S         -4.47550       -0.98256        2.11267
C         -7.28728       -1.22034        1.62999
C         -8.31547       -0.30523        1.65525
C         -7.77632        1.01227        2.00833
C         -8.42012        2.19520        2.05768
C         -9.80246        2.30735        1.74946
N        -10.92584        2.40364        1.47433
C         -7.73864        3.40740        2.36178
N         -7.17607        4.39714        2.58761
C         -9.56267       -0.90949        1.35606
C         -9.43329       -2.28452        1.13218
S         -7.75350       -2.77200        1.27194
C        -10.47858       -3.27089        0.85015
C        -11.82355       -3.31591        1.26578
C        -12.43767       -2.23382        1.97100
N        -12.90236       -1.29858        2.46906
C        -12.44986       -4.51043        0.82706
C        -11.66071       -5.23256        0.00373
S        -10.12283       -4.62805       -0.19368
S        -12.40097       -6.58382       -0.67601
C        -13.79891       -6.21125        0.18312
C        -13.70241       -5.13182        0.98788
C        -14.84787       -4.96089        1.81065
C        -14.96378       -4.02772        2.88770
N        -15.04255       -3.31620        3.80454
C        -15.83399       -5.94017        1.52979
S        -15.28911       -6.94664        0.20132
C        -17.16789       -6.24549        2.15985
C        -17.69540       -7.55039        2.38869
C        -18.94807       -7.78965        3.08999
N        -19.43127       -9.04430        3.23849
C        -18.74486      -10.05658        2.66686
C        -17.55319       -9.84403        2.01840
N        -17.00995       -8.61221        1.91498
F        -16.90241      -10.86405        1.44178
F        -19.26488      -11.29001        2.73269
C        -19.71598       -6.74349        3.62470
C        -19.30677       -5.42264        3.30040
C        -18.02378       -5.17303        2.54335
N        -17.83662       -3.86909        2.27818
S        -19.07179       -3.03273        2.99404
N        -19.96388       -4.28724        3.58749
C        -20.90750       -6.93603        4.48387
C        -22.14217       -7.10255        3.96843
C        -23.29662       -7.28698        4.82558
C        -23.15583       -7.64986        6.10968
C        -21.78718       -7.82909        6.71148
C        -20.68965       -6.95857        5.99512
N        -20.68451       -5.54616        6.43370
C        -21.13499       -5.33114        7.61988
C        -21.57808       -6.41625        8.55005
N        -21.87229       -7.61122        8.16782
F        -21.65492       -6.13548        9.85678
F        -21.18872       -4.06650        8.05764
H         -1.31346       -0.23813        1.82702
H         -2.42273        3.60707        5.38431
H         -5.16055        2.49047        2.96281
H        -10.50917       -0.38592        1.31701
H        -22.32542       -7.08409        2.89755
H        -24.28346       -7.16240        4.38913
H        -24.02920       -7.83530        6.72994
H        -21.51612       -8.88460        6.57429
H        -19.70834       -7.39061        6.23057
