101

C          7.33876        4.43162        0.68093
C          6.57204        5.53019        1.04851
F          6.84129        6.16471        2.19659
C          5.52413        5.97289        0.25225
C          5.25600        5.33196       -0.95861
C          6.02134        4.22985       -1.36702
C          7.05991        3.75057       -0.51032
C          7.77740        2.59270       -0.84883
C          7.45535        1.92581       -2.01965
C          6.52467        2.48071       -2.91214
C          5.78243        3.60381       -2.60111
C          6.54628        1.73560       -4.19721
O          5.88212        1.95898       -5.18565
C          7.65181        0.73036       -4.03640
C          7.89174        0.64035       -2.59375
C          8.11595       -0.48947       -1.88066
C          8.08332       -1.77587       -2.49397
N          7.98571       -2.83340       -2.95667
C          8.24413       -0.48166       -0.46252
N          8.36350       -0.45977        0.69151
C          8.40770        0.40774       -5.10281
C          9.77123       -0.04628       -5.02748
S         10.80713        0.56235       -3.78438
C         12.21883       -0.26333       -4.30847
C         11.92690       -0.95049       -5.46985
C         10.53419       -0.81921       -5.88795
C         10.02262       -1.41078       -7.05141
C         11.00383       -2.13813       -7.75557
F         10.62810       -2.75373       -8.88858
C         12.36297       -2.25927       -7.34591
F         13.20162       -2.97114       -8.11686
C         12.89169       -1.67317       -6.18304
C         13.42271       -0.18312       -3.53466
C         13.72681        0.90526       -2.80758
C         14.86086        1.01341       -1.94882
C         15.51059        0.13814       -1.09936
C         16.57878        0.77047       -0.32985
C         17.33785        0.05803        0.61810
C         16.99050       -1.30466        0.72201
C         15.94725       -1.91063       -0.02555
C         15.14798       -1.21173       -0.94931
C         16.73253        2.12150       -0.61762
S         15.60523        2.56632       -1.84759
C         17.69703        3.11782       -0.14946
S         19.31089        2.63535        0.17376
C         19.93311        4.21997        0.41429
C         18.88943        5.12208        0.30017
C         17.59431        4.48648        0.05589
C         16.39154        5.21249        0.01717
C         16.57769        6.59548        0.20079
F         15.48408        7.37494        0.20148
C         17.84396        7.21136        0.39032
F         17.88780        8.54579        0.53501
C         19.06022        6.50760        0.45203
C         21.30409        4.42801        0.78349
C         22.36516        3.68604        0.41785
C         22.41510        2.54170       -0.46695
C         22.06133        2.47505       -1.75967
C         21.82534        1.11056       -2.34588
O         22.19344        0.03777       -1.91401
C         20.94769        1.32588       -3.51165
C         20.34143        0.33907       -4.27591
C         19.40952        0.72979       -5.24809
C         19.11058        2.11293       -5.41903
C         18.15133        2.49172       -6.36866
C         17.50188        1.52775       -7.13173
C         17.78802        0.17890       -6.97808
C         18.74157       -0.22067       -6.03972
F         16.58143        1.90857       -8.02725
C         19.76535        3.08547       -4.63584
C         20.71122        2.69417       -3.69539
C         21.56810        3.45582       -2.73796
C         21.98426        4.73289       -2.89978
C         22.96369        5.34855       -2.07013
N         23.76218        5.88551       -1.41370
C         21.55742        5.54109       -3.98931
N         21.21242        6.19631       -4.88530
H          8.14001        4.11369        1.34318
H          4.92482        6.81738        0.57706
H          4.43476        5.69413       -1.57419
H          8.56084        2.22922       -0.18800
H          5.04369        3.97924       -3.30303
H          8.04022        0.66124       -6.09707
H          9.00427       -1.34421       -7.40886
H         13.93546       -1.77755       -5.92022
H         14.08288       -1.04455       -3.55534
H         13.09451        1.78962       -2.86189
H         18.12106        0.46075        1.24411
H         17.54442       -1.92560        1.42703
H         15.74719       -2.97038        0.13629
H         14.33782       -1.71288       -1.46036
H         15.39859        4.80472       -0.10740
H         19.99767        7.02483        0.60893
H         21.50266        5.26530        1.45292
H         23.33192        3.94200        0.85699
H         22.70817        1.62139        0.04466
H         20.57240       -0.70735       -4.09390
H         17.89383        3.53572       -6.52698
H         17.26558       -0.55260       -7.58722
H         18.95233       -1.28236       -5.92654
H         19.49411        4.12796       -4.76903
