118

C         -7.18294       -2.07280        3.23833
C         -6.21185       -3.01423        3.30277
C         -6.23918       -4.08360        4.24243
N         -6.25865       -4.95168        5.01207
C         -5.11219       -3.03879        2.39614
N         -4.21052       -3.04972        1.66583
C         -8.42847       -2.01366        4.06046
C         -9.34636       -1.18435        3.41011
C        -10.59961       -0.85839        3.91294
C        -10.93984       -1.35987        5.18787
C        -10.02114       -2.18491        5.85632
C         -8.76199       -2.53589        5.30419
S        -10.62691       -2.65995        7.40405
C        -12.03945       -1.75974        7.19927
C        -12.11176       -1.12880        5.98674
Br       -13.36945       -1.62785        8.51149
C         -8.75685       -0.61514        2.19217
O         -9.36051       -0.00218        1.33994
C         -7.30333       -0.98685        2.24343
C         -6.33935       -0.26072        1.65323
C         -6.57678        0.95313        0.86635
C         -6.78182        0.80673       -0.51681
C         -7.02130        1.91727       -1.34107
C         -7.07689        3.19954       -0.80141
C         -6.89593        3.34288        0.56685
C         -6.61909        2.24424        1.39669
N         -6.39682        2.72696        2.70303
C         -6.11412        1.96741        3.88550
C         -6.56356        4.11147        2.77076
O         -6.43981        4.81553        3.76361
C         -6.90820        4.61417        1.37203
C         -8.20015        5.43496        1.47120
C         -9.41997        4.83564        0.75282
O        -10.00224        3.81136        1.07482
N         -9.75568        5.70027       -0.29707
C        -10.87338        5.50331       -1.18027
C         -8.97061        6.85587       -0.27071
C         -9.02637        7.97426       -1.08025
C         -8.13028        9.02572       -0.82364
C         -7.22348        8.91852        0.25709
C         -7.17939        7.78858        1.06199
C         -8.05177        6.75944        0.77040
C         -8.16593       10.20863       -1.69781
C         -7.36611       11.28013       -1.56545
C         -7.40310       12.44814       -2.43555
N         -6.52002       13.41925       -2.15170
C         -6.57057       14.50414       -2.93867
C         -7.45286       14.63760       -3.98237
C         -8.30056       13.57318       -4.20260
N         -8.30397       12.47759       -3.42621
C         -9.29173       13.54696       -5.27794
C         -9.17129       14.20927       -6.43875
C        -10.13187       14.12118       -7.51699
C        -10.47584       13.00916       -8.18323
C        -11.41823       12.97289       -9.27403
C        -11.52180       11.76818       -9.85380
C        -10.64119       10.76250       -9.28088
S         -9.79850       11.42975       -7.88887
C        -10.43313        9.51438       -9.74102
C        -11.07412        8.90306      -10.88897
C        -10.63157        7.66837      -11.16472
C         -9.59927        7.20771      -10.26376
S         -9.25855        8.39619       -9.03928
C         -8.98410        6.02137      -10.37222
C         -7.94634        5.51950       -9.49913
C         -6.68210        5.17330       -9.78737
C         -5.81886        5.15731      -10.98487
C         -6.15731        4.89470      -12.27304
C         -5.20442        4.82623      -13.32983
N         -4.43905        4.77055      -14.20219
C         -7.46752        4.54377      -12.69691
N         -8.50768        4.21855      -13.10717
C         -4.40301        5.20547      -10.48088
C         -4.41229        4.96948       -9.10459
C         -5.79101        4.90467       -8.60281
O         -6.11415        4.69423       -7.45171
C         -3.26508        4.82410       -8.32843
C         -2.01396        4.90830       -8.98041
C         -1.99283        5.20203      -10.35158
C         -3.17577        5.38529      -11.11201
S         -0.37305        5.28143      -10.94880
C          0.26901        4.88092       -9.44095
C         -0.68243        4.72916       -8.46761
Br         2.10458        4.66440       -9.13649
H        -11.25938       -0.18973        3.36521
H         -8.08804       -3.15028        5.89054
H        -12.94177       -0.50443        5.67757
H         -5.28281       -0.46868        1.79045
H         -6.76910       -0.18296       -0.96960
H         -7.17821        1.77066       -2.40731
H         -7.26633        4.05584       -1.44195
H         -5.57793        1.04504        3.67272
H         -7.05591        1.75947        4.40192
H         -5.48541        2.56237        4.55708
H         -6.04613        5.21641        1.05604
H         -8.50729        5.64552        2.50292
H        -11.23372        4.47266       -1.11286
H        -10.57289        5.70680       -2.21195
H        -11.68282        6.17882       -0.88767
H         -9.74480        8.03807       -1.89073
H         -6.53168        9.72130        0.49287
H         -6.48076        7.72594        1.89095
H         -8.89415       10.18427       -2.50660
H         -6.61874       11.36169       -0.78723
H         -5.86086       15.28795       -2.69821
H         -7.46856       15.53438       -4.58392
H        -10.13419       12.88107       -5.09864
H         -8.32026       14.85455       -6.63641
H        -10.54673       15.07882       -7.82263
H        -11.97310       13.84554       -9.59021
H        -12.17661       11.57638      -10.69123
H        -11.83299        9.39879      -11.47728
H        -10.98913        7.07268      -11.99414
H         -9.35331        5.33515      -11.12385
H         -8.25259        5.50812       -8.44809
H         -3.33752        4.62651       -7.26204
H         -3.07531        5.63105      -12.16226
H         -0.45655        4.48054       -7.43757
