126

C         -5.66183      -13.38341       -9.64526
C         -5.36213      -13.25668      -10.99574
C         -4.00486      -13.23721      -11.40880
C         -3.72201      -13.11867      -12.81322
N         -3.51064      -13.03440      -13.94957
C         -2.95628      -13.32876      -10.46518
C         -1.57025      -13.22808      -10.85956
N         -0.46069      -13.11767      -11.15169
C         -3.25817      -13.48007       -9.10813
C         -4.59649      -13.50576       -8.73952
C         -5.11768      -13.55701       -7.36643
O         -4.54541      -14.03935       -6.41433
C         -6.51785      -13.02095       -7.46173
C         -6.92979      -13.33571       -8.85210
C         -8.16407      -13.71153       -9.26421
C         -8.41181      -14.16007      -10.59219
N         -8.57702      -14.52484      -11.68035
C         -9.26523      -13.77428       -8.36092
N        -10.14194      -13.80468       -7.60251
C         -7.11517      -12.19469       -6.57654
C         -6.50318      -11.66124       -5.38384
S         -4.83060      -11.18019       -5.40281
C         -4.78116      -10.76486       -3.74383
C         -6.06994      -10.71431       -3.25100
C         -7.04822      -11.26399       -4.16675
C         -8.41191      -11.36064       -3.84060
C         -8.74328      -10.81184       -2.55865
C        -10.20369      -10.75976       -2.15025
F        -11.03837      -11.27051       -3.09559
F        -10.45762      -11.45292       -1.01067
F        -10.62781       -9.48511       -1.93480
C         -7.75852      -10.27211       -1.65918
C         -8.13234       -9.78300       -0.35537
N         -8.40630       -9.39905        0.70500
C         -6.38726      -10.20378       -1.98148
C         -3.51030      -10.48636       -3.16734
C         -3.28887      -10.74209       -1.87416
C         -2.08568      -10.40401       -1.15863
C         -1.51182      -11.40641       -0.45559
C         -0.46117      -11.11287        0.48585
C          0.26028      -11.91300        1.31896
C          0.53519      -13.42607        1.30740
C          0.02005      -14.18930        2.56212
N          0.36662      -15.61789        2.59403
C          0.05523      -14.18256        0.02654
N          0.62903      -13.72275       -1.23895
C          0.82927      -10.93407        2.26286
C          1.12139      -11.03196        3.56820
C          1.36496       -9.79151        4.41893
C          1.56994       -8.50285        3.64031
C          1.27342       -8.40898        2.33616
C          0.71592       -9.58151        1.72496
C         -0.09569       -9.69004        0.67442
C         -0.63203       -8.66492       -0.18152
C         -1.59154       -9.01972       -1.05314
C          2.47885      -10.06878        5.36381
C          3.78335       -9.85262        5.14582
C          4.76634      -10.14568        6.13551
S          4.32112      -10.80034        7.67537
C          5.90548      -10.73782        8.31458
C          6.78484      -10.30954        7.34210
C          6.13475       -9.96683        6.09845
C          6.80297       -9.45006        4.97798
C          8.19815       -9.28101        5.17996
C          9.01349       -8.70110        4.03572
F          8.26443       -8.41062        2.93353
F          9.62819       -7.53663        4.37392
F          9.98565       -9.54704        3.60595
C          8.84245       -9.62700        6.42757
C         10.26006       -9.41598        6.57682
N         11.39462       -9.23853        6.70409
C          8.15827      -10.15789        7.55778
C          6.03017      -10.99797        9.70623
C          6.15938      -12.21273       10.25846
C          6.30434      -13.48546        9.58613
C          5.55826      -14.57089        9.84299
C          5.84944      -15.90325        9.21068
O          6.66393      -16.16127        8.35176
C          4.96584      -16.86839        9.88683
C          4.89525      -18.24125        9.70912
C          4.05843      -18.97631       10.56743
C          3.34274      -18.32115       11.59746
C          3.39279      -16.91902       11.71772
C          4.18714      -16.19988       10.83321
C          4.39335      -14.72465       10.75120
C          3.29007      -13.98545       10.47502
C          2.43646      -14.29891        9.37648
N          1.77429      -14.59452        8.47069
C          2.99463      -12.85502       11.28098
N          2.75520      -11.95560       11.97489
C          2.58045      -19.05831       12.56753
N          1.98085      -19.61957       13.38615
C          3.95021      -20.39661       10.38052
N          3.85255      -21.53970       10.21643
H         -6.14304      -13.14394      -11.74598
H         -2.48107      -13.53425       -8.34758
H         -8.09984      -11.79038       -6.80395
H         -9.16681      -11.79989       -4.48321
H         -5.67255       -9.77088       -1.28983
H         -2.70542      -10.10743       -3.79344
H         -4.04236      -11.21594       -1.24779
H         -1.93461      -12.40023       -0.48566
H          1.63235      -13.52218        1.30974
H         -1.06494      -14.08150        2.65709
H          0.46907      -13.77187        3.46235
H         -0.12817      -16.12901        1.86495
H          0.05751      -16.02946        3.47395
H         -1.03854      -14.16930       -0.02143
H          0.32337      -15.24091        0.08526
H          0.55867      -12.71077       -1.32328
H          0.09799      -14.11776       -2.01399
H          1.06481      -11.96948        4.10217
H          0.46818       -9.63203        5.03545
H          1.92482       -7.62700        4.17699
H          1.39283       -7.48837        1.77965
H         -0.28990       -7.64100       -0.09198
H         -2.06094       -8.26166       -1.67287
H          2.12654      -10.51143        6.28985
H          4.09951       -9.43470        4.19194
H          6.32463       -9.18058        4.04314
H          8.65716      -10.40574        8.48648
H          5.87294      -10.14465       10.36494
H          6.14416      -12.25780       11.34844
H          7.13272      -13.55939        8.88037
H          5.48339      -18.72595        8.93212
H          2.84161      -16.41443       12.51035
