110

C          1.16695       -1.21048      -11.09662
C          1.17354       -2.29952      -10.24754
C          2.02014       -2.39133       -9.08197
N          2.03290       -3.57616       -8.42619
C          1.18174       -4.57444       -8.81203
C          0.33061       -4.42160       -9.87649
N          0.33729       -3.28358      -10.61246
C         -0.57497       -5.44505      -10.30652
N         -1.29343       -6.28982      -10.64928
C          1.24730       -5.78648       -8.05208
N          1.29761       -6.77451       -7.44416
C          2.82125       -1.29293       -8.65366
C          2.87122       -0.17049       -9.53480
C          2.03427       -0.15162      -10.78500
N          2.19462        0.94690      -11.53463
S          3.31307        1.88699      -10.75361
N          3.58097        0.96285       -9.40710
C          3.59722       -1.26301       -7.37646
N          4.75579       -0.63818       -7.23924
C          5.12722       -0.87022       -5.94580
C          4.14025       -1.68416       -5.30505
C          4.54487       -1.98824       -3.91407
O          3.99233       -2.67259       -3.08242
C          5.81562       -1.24710       -3.80817
C          6.09644       -0.59985       -5.07061
N          7.26957        0.07991       -4.96911
C          7.64176       -0.15108       -3.73892
C          6.76442       -1.00660       -2.91511
C          3.12417       -1.92952       -6.11639
C          1.99526       -2.72231       -5.79204
C          0.70946       -2.35181       -5.86702
C         -0.39596       -3.25629       -5.55468
C         -1.66730       -2.77601       -5.62530
C         -2.78042       -3.62555       -5.23540
C         -4.10512       -3.35721       -5.07921
C         -4.84117       -2.06346       -5.39021
C         -6.27626       -2.24691       -5.95162
N         -6.91121       -0.99395       -6.38001
C         -4.78647       -1.06871       -4.20518
N         -5.44288       -1.52996       -2.98112
C         -4.65482       -4.58126       -4.47996
C         -5.84480       -4.86596       -3.93163
C         -6.18126       -6.22691       -3.33239
C         -4.99176       -7.18120       -3.27909
C         -3.79587       -6.90084       -3.81835
C         -3.61585       -5.60119       -4.39793
C         -2.49803       -5.01641       -4.83361
C         -1.16289       -5.52877       -4.86158
C         -0.17743       -4.67661       -5.17723
C         -7.35185       -6.81921       -4.08437
C         -7.56632       -8.12366       -4.31161
C         -8.73304       -8.54433       -5.10501
N         -9.23816       -7.86879       -6.10526
C        -10.24080       -8.67165       -6.53669
C        -10.31008       -9.87000       -5.73942
C        -11.41359      -10.72124       -6.24907
O        -11.79579      -11.80169       -5.85765
C        -11.95125       -9.90423       -7.36249
C        -11.18543       -8.68991       -7.46961
N        -11.66446       -7.92316       -8.48142
C        -12.65490       -8.63823       -8.93864
C        -12.91290       -9.93447       -8.27482
C         -9.38681       -9.85645       -4.78594
C         -9.03807      -10.78591       -3.75677
C         -9.90941      -11.57548       -3.10821
C         -9.56161      -12.52007       -2.02675
C         -8.33239      -13.20657       -1.88349
C         -8.10787      -14.14370       -0.81228
N         -6.93537      -14.78113       -0.67218
C         -5.94662      -14.49929       -1.56477
C         -6.14091      -13.60310       -2.58824
N         -7.32691      -12.97098       -2.75798
C         -5.10145      -13.22111       -3.50468
N         -4.24807      -12.89101       -4.21397
C         -4.70373      -15.17230       -1.35042
N         -3.68372      -15.70341       -1.19621
C         -9.06534      -14.43956        0.14654
C        -10.29867      -13.76836        0.05619
C        -10.56483      -12.79242       -1.04898
N        -11.79275      -12.24925       -0.96433
S        -12.52528      -12.90059        0.37277
N        -11.32314      -13.90993        0.90849
H          0.54461       -1.18440      -11.98550
H          8.56026        0.25179       -3.28578
H          6.88182       -1.32558       -1.89773
H          2.28384       -3.71292       -5.44816
H          0.45913       -1.33596       -6.16347
H         -1.87982       -1.74798       -5.89593
H         -4.28034       -1.58243       -6.20663
H         -6.94055       -2.68013       -5.20455
H         -6.25682       -2.93395       -6.80603
H         -7.86982       -1.19529       -6.66601
H         -6.43570       -0.61315       -7.19310
H         -5.23831       -0.11521       -4.50241
H         -3.73836       -0.84400       -3.97227
H         -4.99609       -2.39181       -2.66965
H         -5.28682       -0.84374       -2.24498
H         -6.62256       -4.11820       -3.85129
H         -6.49916       -6.04388       -2.29789
H         -5.12273       -8.13745       -2.78312
H         -2.97458       -7.60719       -3.78360
H         -0.95232       -6.55935       -4.60156
H          0.82978       -5.07607       -5.14804
H         -8.07652       -6.10233       -4.47302
H         -6.90547       -8.89542       -3.94510
H        -13.29782       -8.33044       -9.77601
H        -13.67088      -10.66085       -8.48669
H         -7.98498      -10.80854       -3.49702
H        -10.96998      -11.52749       -3.35538
H         -8.87096      -15.14645        0.94599
