114

C         -5.03799        2.43905       -1.69508
C         -4.71302        2.51773       -0.38040
C         -5.67246        2.79041        0.62170
N         -6.47026        3.01261        1.45072
C         -3.39313        2.22162        0.08853
N         -2.35007        1.96287        0.49925
C         -6.41067        2.33420       -2.22043
C         -6.38230        1.46900       -3.32653
C         -7.53282        1.06809       -3.98281
C         -8.75700        1.61808       -3.56482
C         -8.78192        2.58670       -2.51886
C         -7.59958        2.93493       -1.84708
C         -9.99693        3.19074       -2.16632
C        -11.18207        2.83160       -2.80673
C        -11.16824        1.85625       -3.79963
C         -9.96528        1.25494       -4.17838
C         -4.97824        1.18531       -3.70656
O         -4.59400        0.47628       -4.61276
C         -4.15549        2.04614       -2.78587
C         -2.98497        2.54262       -3.21551
C         -2.34730        3.67130       -2.61990
O         -2.89229        4.49352       -1.65601
C         -2.03430        5.53539       -1.32141
C         -0.88537        5.35028       -2.11894
C         -1.11091        4.18937       -2.90722
O         -0.26914        3.66018       -3.82102
C          0.36227        6.06054       -2.28530
O          1.32291        5.57598       -2.87274
O          0.35534        7.35678       -1.99896
C         -2.39500        6.47027       -0.26082
C         -2.05560        7.78039       -0.37942
C         -1.89833        8.59396        0.82039
C         -1.20745        9.74852        1.06708
C         -0.51135       10.78059        0.15388
C          0.09875       10.22239       -1.14631
N          1.19581        9.30438       -0.86230
C         -1.47902       11.93096       -0.26685
N         -0.86783       12.94363       -1.14884
C         -1.12091        9.75668        2.54946
C         -0.16819       10.20218        3.39121
C         -0.22625        9.94759        4.90530
C         -1.44899        9.16479        5.37186
C         -2.34370        8.64476        4.51750
C         -2.08538        8.81240        3.11284
C         -2.47058        8.05949        2.07982
C         -3.24879        6.84946        2.05608
C         -3.18133        6.08596        0.94551
C         -0.10811       11.26706        5.61083
C         -1.13060       12.07905        5.92657
C         -0.87586       13.32175        6.55546
O          0.38548       13.74101        6.89761
C          0.31627       14.94361        7.53730
C         -1.01153       15.35131        7.57359
C         -1.74946       14.32158        6.94071
O         -3.08269       14.26298        6.75456
C         -1.48457       16.57304        8.16522
O         -0.93410       17.21396        9.04915
O         -2.64423       17.02138        7.62765
C          1.48409       15.59096        8.00925
C          1.95621       15.40747        9.25060
C          3.14398       15.99314        9.92696
C          4.01461       16.90695        9.42545
C          5.11464       17.41526       10.16232
N          6.02525       17.84220       10.75206
C          3.91865       17.45752        8.11053
N          3.85796       17.91031        7.04547
C          3.18887       15.38904       11.30089
C          2.10796       14.51294       11.44678
C          1.28745       14.48591       10.23786
O          0.26808       13.83642       10.12434
C          1.84814       13.77733       12.59551
C          2.71133       13.92253       13.68211
C          3.81660       14.80915       13.58219
C          4.04484       15.53191       12.38760
C          4.66974       14.95173       14.68744
C          4.44357       14.23563       15.86443
C          3.36183       13.36475       15.95517
C          2.49946       13.20832       14.87041
H         -7.47214        0.37137       -4.81382
H         -7.62894        3.67964       -1.05596
H        -10.03290        3.95065       -1.38777
H        -12.11634        3.31123       -2.52545
H        -12.09650        1.56822       -4.28711
H         -9.98194        0.50092       -4.96246
H         -2.53439        2.15434       -4.12772
H          0.60581        4.10980       -3.77219
H          0.12567        7.55149       -1.06300
H         -1.72324        8.17361       -1.32041
H          0.31203       11.24216        0.71697
H          0.49631       10.99858       -1.80779
H         -0.67883        9.75223       -1.75279
H          2.02026        9.82573       -0.56813
H          1.46290        8.87671       -1.76232
H         -1.87626       12.43619        0.61892
H         -2.33246       11.50957       -0.81253
H          0.15005       12.90178       -1.12387
H         -1.11108       13.88299       -0.83758
H          0.72741       10.68996        3.02090
H          0.64350        9.33830        5.19172
H         -1.57538        9.01003        6.44199
H         -3.20489        8.08436        4.86154
H         -3.86508        6.58568        2.90971
H         -3.79281        5.19413        0.88900
H          0.91358       11.57450        5.82843
H         -2.15968       11.81665        5.69945
H         -3.49599       15.07976        7.09372
H         -2.77664       17.87700        8.08919
H          1.95239       16.22510        7.27278
H          0.98845       13.11274       12.63140
H          4.90361       16.19283       12.36496
H          5.52310       15.62616       14.64372
H          5.11447       14.35794       16.71127
H          3.18803       12.80619       16.87148
H          1.65905       12.52293       14.96166
