99

C         -2.14669       -1.41030        1.27557
C         -1.05484       -1.62905        2.04903
C         -0.41567       -2.90237        2.13616
N          0.10136       -3.93313        2.20800
C         -0.42734       -0.58735        2.79345
N          0.06773        0.26662        3.40850
C         -2.81695       -2.39121        0.36549
C         -3.61919       -1.67885       -0.53059
C         -4.43920       -2.26407       -1.48610
C         -4.45485       -3.67251       -1.55688
C         -3.64273       -4.40150       -0.67649
C         -2.82099       -3.78017        0.30189
S         -3.80082       -6.09913       -0.95260
C         -4.94192       -5.87129       -2.19757
C         -5.21396       -4.54128       -2.40983
C         -3.53941       -0.23784       -0.26983
O         -3.94737        0.63446       -1.00659
C         -2.82485       -0.11359        1.04299
C         -3.02446        0.91141        1.88812
C         -3.90483        1.99059        1.59705
C         -3.63451        3.20754        0.97159
C         -4.77896        4.03369        0.95301
C         -5.86923        3.40170        1.50508
S         -5.57128        1.87897        2.09412
C         -6.98095        4.26655        1.44062
C         -6.59728        5.45134        0.85777
C         -5.16834        5.38074        0.53212
C         -4.37867        6.33960        0.01145
C         -2.99268        6.12608       -0.22438
N         -1.85549        5.96444       -0.40906
C         -4.88460        7.62874       -0.30169
N         -5.29083        8.68543       -0.56280
C         -7.68738        6.35064        0.76279
C         -8.87956        5.78432        1.24172
S         -8.56360        4.20269        1.92074
C        -10.25318        6.35865        1.29070
C        -10.51692        7.72433        1.54348
C        -11.86028        8.25391        1.61794
N        -12.03030        9.55857        1.92172
C        -10.96077       10.35263        2.09118
C         -9.69304        9.85759        1.99242
N         -9.46353        8.55400        1.73585
C        -13.01816        7.46451        1.40047
C        -12.79095        6.08698        1.12467
C        -11.39211        5.52608        1.06491
N        -11.39318        4.21318        0.76811
S        -12.95644        3.71273        0.64923
N        -13.72681        5.14912        0.88638
C        -14.42094        7.96961        1.43058
C        -15.61470        7.31737        1.78545
C        -16.74252        8.15843        1.64474
C        -16.37274        9.41031        1.21921
S        -14.76564        9.59940        0.89597
C        -17.51837       10.21299        1.08760
C        -18.62459        9.47334        1.42671
C        -18.20231        8.11322        1.76968
C        -18.99037        7.05241        2.03183
C        -18.45077        5.76694        2.30480
N        -18.01932        4.71561        2.53897
C        -20.40832        7.16639        2.00258
N        -21.56174        7.29876        1.95512
C        -19.80939       10.23206        1.30192
C        -19.55144       11.45916        0.68925
S        -17.83030       11.75913        0.58813
C        -20.40176       12.47751        0.18824
C        -21.61372       12.33538       -0.36256
C        -22.57376       11.25767       -0.66464
C        -22.33582        9.99649       -1.10879
C        -23.37828        9.07368       -1.42178
N        -24.22091        8.31776       -1.67774
C        -21.03784        9.48880       -1.40702
N        -20.01591        9.00733       -1.67528
C        -23.92500       11.91242       -0.70665
C        -23.74321       13.29609       -0.76245
C        -22.32813       13.63643       -0.60401
O        -21.86344       14.75772       -0.62235
C        -24.77060       14.21949       -0.91433
C        -26.08480       13.71873       -1.02394
C        -26.28779       12.33621       -0.92138
C        -25.22304       11.41751       -0.73642
S        -27.96148       11.93976       -1.06245
C        -28.40695       13.56828       -1.28738
C        -27.32354       14.41220       -1.23163
H         -5.06380       -1.65253       -2.13138
H         -2.24885       -4.40900        0.97464
H         -5.36482       -6.72195       -2.71474
H         -5.92419       -4.19494       -3.15160
H         -2.60874        0.91656        2.89037
H         -2.65473        3.44821        0.57722
H         -7.64496        7.35592        0.35987
H        -11.16821       11.39394        2.30741
H         -8.82203       10.48872        2.12180
H        -15.64460        6.28379        2.10812
H        -20.81021        9.89050        1.52841
H        -20.00038       13.49099        0.27292
H        -24.55985       15.28456       -0.95893
H        -25.46221       10.36486       -0.64277
H        -29.44372       13.83204       -1.44511
H        -27.40704       15.48651       -1.34546
