113

C         -2.08563        3.14437       -0.62015
C         -1.48592        2.40856       -1.63021
C         -0.09835        2.55272       -1.92189
N          1.02737        2.65581       -2.16437
C         -2.19918        1.41334       -2.37991
N         -2.79952        0.60282       -2.98260
C         -1.39782        4.07945        0.33745
C         -2.24695        4.27829        1.42515
C         -1.95425        5.09280        2.51781
C         -0.71783        5.77367        2.51736
C          0.15185        5.58274        1.43457
C         -0.17320        4.74478        0.32908
S          1.61040        6.48563        1.64810
C          1.08595        7.13901        3.13262
C         -0.16617        6.68906        3.47768
C         -3.48749        3.51327        1.25711
O         -4.25189        3.24434        2.15871
C         -3.50079        3.05196       -0.17238
C         -4.60262        2.79797       -0.90973
C         -5.97445        2.93330       -0.51384
C         -7.06383        2.22982       -0.96281
C         -8.37671        2.62670       -0.41667
C         -9.54670        1.78880       -0.78233
C         -9.34876        0.40019       -0.88495
C        -10.38198       -0.49258       -1.17599
C        -11.66752       -0.00128       -1.35157
C        -11.86855        1.37663       -1.40920
C        -10.79280        2.25875       -1.18424
O        -13.09688        1.95635       -1.60498
C        -13.93277        1.28523       -2.54492
O        -10.22912       -1.84855       -1.30042
C         -8.88722       -2.32070       -1.19906
C         -8.25147        3.70481        0.49972
S         -6.55394        4.19259        0.42924
C         -9.09549        4.50950        1.52849
C         -8.59944        5.60733        2.30749
C         -9.24344        6.17228        3.47712
N         -8.59328        7.08458        4.22374
C         -7.53464        7.71595        3.70013
C         -7.04907        7.35672        2.48248
N         -7.53008        6.27934        1.84066
F         -6.15152        8.11943        1.84729
F         -7.06414        8.79175        4.34338
C        -10.59927        5.97185        3.78571
C        -11.25881        5.13154        2.84058
C        -10.49212        4.37620        1.73847
N        -11.34440        3.67704        0.99246
S        -12.88552        4.05201        1.39674
N        -12.58681        4.94422        2.73702
C        -11.35380        6.86644        4.75166
C        -10.89390        7.91122        5.54552
C        -11.86836        8.84957        6.07811
C        -11.43169       10.15132        6.72944
C        -10.10721       10.44423        7.12148
C         -9.79705       11.63901        7.81972
C        -10.80351       12.47890        8.25977
C        -12.04020       12.36264        7.71619
C        -12.30207       11.23493        6.87511
O        -12.98638       13.33263        7.96598
C        -12.99599       14.12605        9.18825
O         -8.48657       11.97940        8.04786
C         -8.26108       13.40413        8.07339
C        -13.15866        8.31246        5.86942
S        -13.02349        6.76081        5.03313
C        -14.56186        8.56315        6.15847
C        -15.05753        9.08175        7.28359
C        -14.39695        9.68897        8.39641
C        -14.54926       11.02605        8.62375
C        -14.02850       11.53135        9.85966
N        -13.48094       11.79851       10.85107
C        -15.12996       11.88128        7.60517
N        -15.48265       12.49034        6.67805
C        -14.77777        8.91489        9.57585
C        -16.14553        8.70627        9.36246
C        -16.42487        8.79915        7.87602
O        -17.49123        8.77212        7.30495
C        -16.99261        8.70776       10.44392
C        -16.40376        8.78592       11.74318
C        -15.00460        8.82842       11.88908
C        -14.13269        8.84355       10.79743
S        -14.52489        8.95951       13.53680
C        -16.13548        8.89116       14.07159
C        -17.03068        8.83838       13.02950
H         -2.66645        5.20946        3.32970
H          0.54348        4.66853       -0.48111
H          1.71749        7.82370        3.68413
H         -0.67236        6.99807        4.38504
H         -4.49328        2.51002       -1.95052
H         -6.93572        1.40916       -1.66086
H         -8.34647        0.01377       -0.74908
H        -12.48426       -0.70794       -1.44829
H        -10.96592        3.32523       -1.29009
H        -14.89368        1.80801       -2.57395
H        -14.14769        0.24980       -2.26568
H        -13.48704        1.33251       -3.54340
H         -8.89029       -3.40915       -1.28719
H         -8.46288       -2.07122       -0.22017
H         -8.26814       -1.91802       -2.01045
H         -9.84618        8.10012        5.67280
H         -9.27555        9.79777        6.84961
H        -10.61997       13.29773        8.93200
H        -13.22921       11.14377        6.32699
H        -12.88914       15.18205        8.94536
H        -12.26493       13.84811        9.95904
H        -13.98850       14.04270        9.66224
H         -8.36001       13.83064        7.06789
H         -7.25738       13.58301        8.45623
H         -8.91114       13.96134        8.75681
H        -15.29340        8.06889        5.51146
H        -18.06799        8.73624       10.30328
H        -13.06983        9.04568       10.91642
H        -16.34728        8.89884       15.12994
H        -18.10194        8.80989       13.17200
