104

C          5.41055       -7.89079       -5.80833
C          5.27590       -8.47299       -7.06608
F          6.37311       -8.73573       -7.78878
C          4.02089       -8.78404       -7.56793
F          3.89768       -9.36017       -8.77126
C          2.87737       -8.50389       -6.82911
C          2.98745       -7.90751       -5.56528
C          4.27498       -7.60596       -5.03196
C          4.39377       -7.04475       -3.73855
C          3.25757       -6.78841       -2.98150
C          2.01142       -7.07598       -3.55351
C          1.84498       -7.61911       -4.81743
C          0.92779       -6.80826       -2.60405
O         -0.25144       -6.77746       -2.88130
C          1.60289       -6.56712       -1.28546
C          3.03320       -6.29911       -1.58560
C          3.92411       -5.64746       -0.80048
C          3.56979       -5.12315        0.47295
N          3.28872       -4.70576        1.52039
C          5.26681       -5.39581       -1.19712
N          6.36671       -5.20409       -1.51462
C          1.01256       -6.82138       -0.10792
C         -0.30915       -7.33957       -0.01031
C         -1.52601       -6.66485        0.08969
C         -2.60228       -7.57197        0.19895
C         -2.16904       -8.87606        0.13913
S         -0.52766       -9.06836        0.01214
C         -3.28447       -9.73240        0.20225
C         -4.42941       -8.97869        0.31342
C         -4.06069       -7.55967        0.34680
C         -4.86069       -6.49119        0.51958
C         -6.26161       -6.63353        0.71139
N         -7.40349       -6.75097        0.87829
C         -4.34217       -5.16714        0.55745
N         -3.91860       -4.08676        0.59470
C         -5.58130       -9.80034        0.34745
C         -5.24295      -11.15788        0.25731
S         -3.52309      -11.36733        0.15024
C         -6.18759      -12.36075        0.25901
C         -6.44030      -12.87281        1.66290
N         -7.13954      -12.14399        2.54235
S         -7.24179      -13.09075        3.91762
N         -6.42897      -14.45715        3.39689
C         -6.03879      -14.17951        2.14609
C         -5.30588      -15.21295        1.31691
C         -5.34869      -14.81870       -0.14840
C         -5.74570      -13.50846       -0.63363
N         -5.73868      -13.38290       -1.96695
S         -5.20027      -14.85886       -2.54449
N         -5.03335      -15.69931       -1.10698
C         -3.89809      -15.46490        1.85129
C         -3.50091      -16.39274        2.82379
C         -2.10909      -16.32548        3.05951
C         -1.51956      -15.38673        2.24960
S         -2.54489      -14.55558        1.25974
C         -0.13333      -15.39751        2.46367
C          0.16784      -16.30659        3.44703
C         -1.07047      -16.96643        3.87370
C         -1.20890      -17.97702        4.75073
C         -0.09607      -18.50469        5.46044
N          0.81452      -18.93194        6.03408
C         -2.46534      -18.60243        4.97089
N         -3.48900      -19.12787        5.12557
C          1.56139      -16.36782        3.67562
C          2.26323      -15.53262        2.79759
S          1.16494      -14.72145        1.70228
C          3.67681      -15.41849        2.62720
C          4.32867      -14.31631        2.22462
C          5.68970      -14.50879        1.62726
O          6.44722      -15.44443        1.77210
C          5.88943      -13.35203        0.73515
C          6.96997      -13.14938       -0.10525
C          6.98219      -11.99331       -0.89272
C          5.87106      -11.09685       -0.85377
C          5.89901       -9.93929       -1.64184
C          7.01197       -9.66297       -2.43047
C          8.08878      -10.53359       -2.46886
C          8.07894      -11.70014       -1.71284
F          9.15441      -10.25137       -3.22925
F          7.04415       -8.53174       -3.14537
C          4.77410      -11.35808       -0.00983
C          4.80481      -12.46476        0.82616
C          3.92030      -12.93555        1.92507
C          3.10246      -12.15059        2.66985
C          2.59863      -12.57283        3.93506
N          2.20550      -12.89468        4.98162
C          2.73713      -10.83046        2.28515
N          2.43805       -9.76287        1.93954
H          6.41265       -7.66983       -5.44779
H          1.90946       -8.76215       -7.25069
H          5.39093       -6.85610       -3.35295
H          0.84498       -7.83581       -5.18483
H          1.55569       -6.77912        0.83278
H         -1.58988       -5.58331        0.07216
H         -6.60901       -9.46416        0.42977
H         -7.15559      -12.01742       -0.13768
H         -5.86280      -16.15817        1.40450
H         -4.20437      -17.06081        3.30734
H          2.06577      -17.00232        4.39584
H          4.23566      -16.35025        2.73054
H          7.78562      -13.86772       -0.12573
H          5.07507       -9.23254       -1.63404
H          8.94246      -12.35786       -1.76248
H          3.93167      -10.67350       -0.01804
