111

C         -5.93766        1.21800        5.82387
C         -6.75441        1.01986        6.88415
C         -6.33626        0.32507        8.05604
N         -5.99913       -0.24624        9.00531
C         -8.08252        1.54078        6.94748
N         -9.16340        1.95801        6.98825
C         -4.49175        0.84666        5.72505
C         -3.91678        1.59303        4.69348
C         -2.58854        1.49001        4.29926
C         -1.77569        0.55583        4.97623
C         -2.34045       -0.20590        6.00845
C         -3.70051       -0.07815        6.39803
S         -1.17874       -1.28545        6.69057
C          0.04807       -0.76051        5.63109
C         -0.39762        0.21259        4.76906
C         -4.92413        2.42795        4.02799
O         -4.69087        3.26722        3.18469
C         -6.24468        2.00087        4.60283
C         -7.41713        2.16289        3.96874
C         -7.54686        2.83210        2.71565
S         -7.88462        4.50980        2.70784
C         -7.92853        4.60136        0.98319
C         -7.70959        3.34940        0.43071
C         -7.51114        2.33534        1.42354
S         -7.27995        0.61713        1.05039
C         -6.93198        0.66315       -0.65053
O         -5.97547        0.18415       -1.22458
C         -8.12754        1.32427       -1.29761
O         -9.09637        0.78196       -1.78510
S         -7.73787        3.00424       -1.30895
C         -8.21554        5.88332        0.42875
C         -7.76907        6.28625       -0.77112
C         -7.99416        7.61540       -1.35710
C         -7.53504        7.85882       -2.66557
C         -7.66793        9.13599       -3.18991
C         -8.25142       10.16381       -2.42466
C         -8.72869        9.93356       -1.15099
C         -8.59730        8.65585       -0.62280
C         -8.21699       11.39644       -3.16243
C         -7.59519       11.17708       -4.40618
C         -7.22885        9.69020       -4.55198
C         -5.71057        9.47792       -4.80709
C         -4.77390        9.94994       -3.69582
C         -8.03732        9.05357       -5.72044
C         -9.55958        9.07760       -5.56856
C         -7.43784       12.22348       -5.30495
C         -7.90690       13.49869       -4.94516
C         -8.54512       13.69022       -3.70208
C         -8.69681       12.64019       -2.80169
C         -7.78574       14.60346       -5.90501
C         -7.57414       15.87811       -5.54263
C         -7.43916       16.94729       -6.50986
C         -6.76661       18.09183       -6.31977
C         -6.55479       19.08600       -7.34551
C         -5.56417       19.94317       -7.05607
C         -4.92312       19.67033       -5.78138
S         -5.89125       18.51039       -4.87023
C         -3.70028       20.07733       -5.39517
C         -2.74930       20.83862       -6.18267
C         -1.47994       20.68254       -5.77126
C         -1.35528       19.80406       -4.62241
S         -2.92932       19.54221       -3.91106
C         -0.20086       19.24244       -4.22259
C         -0.05674       18.28010       -3.18713
N         -1.07372       17.38385       -2.85322
C         -0.57928       16.54810       -1.84084
C          0.70199       16.95162       -1.62254
C          1.03738       18.01243       -2.44476
N          2.27982       18.54097       -2.36509
C          2.83422       17.72646       -1.37274
C          1.91377       16.75223       -0.90755
C          2.17098       15.77135        0.09232
C          3.37437       15.24976        0.36709
H         -2.20453        2.08659        3.47640
H         -4.07604       -0.72428        7.18333
H          1.03898       -1.19085        5.68568
H          0.23414        0.66562        4.01401
H         -8.33693        1.73840        4.35670
H         -8.79652        6.55333        1.05503
H         -7.15348        5.63865       -1.38469
H         -7.06057        7.07660       -3.25133
H         -9.17775       10.72260       -0.56187
H         -8.95727        8.50674        0.38961
H         -5.41907        9.98625       -5.73553
H         -5.51216        8.40968       -4.97072
H         -4.92218       11.00674       -3.45850
H         -3.73201        9.82141       -4.00886
H         -4.90874        9.36481       -2.78088
H         -7.73483        8.00673       -5.85538
H         -7.78453        9.56769       -6.65760
H         -9.88951        8.39030       -4.78325
H        -10.03303        8.75823       -6.50273
H         -9.93825       10.07679       -5.33564
H         -6.96439       12.05385       -6.26698
H         -8.94391       14.66251       -3.42439
H         -9.19109       12.80125       -1.85043
H         -7.83274       14.32608       -6.95423
H         -7.46269       16.13973       -4.49196
H         -7.88498       16.75732       -7.48404
H         -7.10994       19.09252       -8.27285
H         -5.23791       20.72343       -7.72762
H         -3.02644       21.41139       -7.05595
H         -0.62565       21.11392       -6.27449
H          0.70777       19.50772       -4.75955
H         -2.00525       17.35992       -3.25141
H         -1.20298       15.77376       -1.41870
H          2.66907       19.31721       -2.88182
H          3.85343       17.91419       -1.06301
H          1.31264       15.40793        0.65416
H          4.26090       15.54236       -0.18569
H          3.49038       14.49689        1.13840
