106

C         -8.37940        3.32121        3.30428
C         -8.57387        4.37028        4.13941
C         -8.16602        4.35721        5.50608
N         -7.82230        4.36269        6.61910
C         -9.18254        5.58510        3.73000
N         -9.70173        6.57944        3.40400
C         -7.78340        1.99081        3.67910
C         -7.58437        1.25155        2.51479
C         -7.12341       -0.05841        2.46171
C         -6.84144       -0.69280        3.68339
C         -7.01274        0.03387        4.87128
C         -7.47753        1.37885        4.89010
S         -6.60939       -0.93577        6.24442
C         -6.27118       -2.27897        5.28002
C         -6.40734       -2.03616        3.94115
Br        -5.77189       -3.94413        5.97660
C         -7.95739        2.02147        1.33993
O         -7.63824        1.70293        0.21129
C         -8.65961        3.24961        1.84198
C         -9.39290        4.01092        1.00792
N         -9.75643        3.81821       -0.32115
C        -10.02997        2.63096       -0.94620
S        -10.86611        1.34342       -0.12638
C        -10.71438        0.32481       -1.45710
N        -11.21151       -1.00455       -1.36128
O        -12.15767       -1.28946       -2.10285
O        -10.64369       -1.76536       -0.56544
C        -10.17801        0.92831       -2.56440
C         -9.76510        2.26705       -2.26600
C         -9.14955        3.10630       -3.25275
C         -7.90300        3.60821       -3.19038
C         -7.33356        4.52583       -4.19917
C         -5.94459        4.53582       -4.45384
C         -5.41149        5.52422       -5.28052
C         -6.26156        6.51380       -5.82346
C         -7.63002        6.48313       -5.63166
C         -8.16101        5.48826       -4.81668
C         -5.47473        7.53070       -6.46889
C         -4.11821        7.18040       -6.39779
C         -3.95258        5.80788       -5.70472
C         -2.94126        5.92712       -4.53456
C         -3.29771        6.93557       -3.43599
C         -3.48377        4.81490       -6.81648
C         -3.21870        3.36664       -6.41946
C         -3.14002        8.04886       -6.86383
C         -3.52417        9.30001       -7.37669
C         -4.89079        9.62834       -7.44872
C         -5.87117        8.74407       -6.99981
C         -2.46236       10.20384       -7.83864
C         -2.61736       11.44191       -8.33717
C         -1.52385       12.27595       -8.88550
C         -1.56430       13.68206       -8.86214
C         -0.55441       14.50114       -9.49596
N         -0.74208       15.83917       -9.52211
C         -1.73121       16.38890       -8.76704
C         -2.64459       15.60912       -8.11062
N         -2.59836       14.25650       -8.20297
C         -3.69806       16.14749       -7.30041
N         -4.54847       16.60163       -6.65687
C         -1.71148       17.82052       -8.66738
N         -1.69271       18.97497       -8.58723
C          0.62590       13.95099      -10.06209
C          0.73237       12.52161      -10.02408
C         -0.38719       11.67682       -9.49096
N         -0.17220       10.36276       -9.68735
S          1.35419       10.18193      -10.26901
N          1.77743       11.76755      -10.41800
C          1.70237       14.72183      -10.74676
C          2.17049       15.99991      -10.40958
C          1.87474       16.89086       -9.27897
O          1.49174       16.47877       -8.17962
C          2.07905       18.38839       -9.46867
S          3.38492       16.54043      -11.51913
C          3.41820       15.07219      -12.34897
C          2.45017       14.21772      -11.88750
H         -7.02669       -0.57440        1.50954
H         -7.60654        1.85997        5.85224
H         -6.23217       -2.77452        3.16649
H         -9.84030        4.94333        1.33502
H         -9.55235        4.62503       -0.91082
H        -10.05318        0.43691       -3.52242
H         -9.75818        3.29912       -4.13466
H         -7.25789        3.37197       -2.34591
H         -5.29656        3.79859       -3.98943
H         -8.27561        7.24047       -6.06286
H         -9.23183        5.51016       -4.63005
H         -1.96194        6.22234       -4.93634
H         -2.79272        4.95200       -4.05793
H         -3.52370        7.93108       -3.83107
H         -2.44940        7.05012       -2.75127
H         -4.15323        6.59755       -2.84436
H         -2.56018        5.19057       -7.27961
H         -4.22939        4.79901       -7.62423
H         -2.26165        3.26284       -5.89973
H         -3.16028        2.74967       -7.32555
H         -4.00845        2.94482       -5.79627
H         -2.09206        7.76657       -6.80747
H         -5.21987       10.58383       -7.84428
H         -6.91626        9.03027       -7.03788
H         -1.46783        9.77221       -7.76411
H         -3.59768       11.91146       -8.35886
H          3.12289       18.61551       -9.70245
H          1.84011       18.91335       -8.53923
H          1.42409       18.77085      -10.25784
H          4.12881       14.90394      -13.14682
H          2.31536       13.24138      -12.33885
