102

C         -3.83142        3.96707        8.89972
C         -3.88231        5.33723        9.13496
F         -3.91227        5.78442       10.39767
C         -3.91108        6.23209        8.07558
F         -3.96227        7.55052        8.30863
C         -3.89564        5.77326        6.76166
C         -3.86481        4.39551        6.49667
C         -3.82788        3.47515        7.58490
C         -3.80493        2.08689        7.33881
C         -3.85986        1.60760        6.03458
C         -3.87419        2.53888        4.98488
C         -3.87475        3.91260        5.18187
C         -3.85255        1.85432        3.68094
O         -3.88487        2.37712        2.58499
C         -3.75496        0.39446        3.99071
C         -3.92258        0.23110        5.45323
C         -4.20943       -0.91307        6.12884
C         -4.43136       -2.16030        5.47596
N         -4.62390       -3.17595        4.94889
C         -4.36566       -0.96558        7.54326
N         -4.47984       -1.01257        8.69632
C         -3.41901       -0.49432        3.04449
N         -3.18563       -0.32284        1.69080
C         -2.84931       -1.29829        0.78548
S         -1.98529       -2.72614        1.25997
C         -1.93243       -3.30051       -0.31677
N         -1.25788       -4.52437       -0.58188
O         -1.92789       -5.42042       -1.10807
O         -0.05343       -4.57071       -0.30334
C         -2.57932       -2.50629       -1.22348
C         -3.09206       -1.32633       -0.59216
C         -3.80493       -0.28835       -1.27707
C         -4.04397       -0.20987       -2.60065
C         -4.77169        0.88730       -3.16175
C         -5.58852        0.92650       -4.30555
C         -5.85455       -0.24307       -5.10040
N         -6.08829       -1.21128       -5.68013
C         -6.25885        2.15972       -4.36903
C         -6.00142        2.96541       -3.31337
S         -4.74655        2.45426       -2.36778
S         -7.07337        4.24520       -3.13507
C         -7.86662        3.69368       -4.50622
C         -7.28042        2.67762       -5.15800
C         -7.83130        2.42600       -6.44332
C         -7.12209        1.67071       -7.43268
N         -6.41487        1.10346       -8.15693
C         -9.03272        3.15893       -6.63653
S         -9.31556        4.08343       -5.16332
C        -10.00205        3.32994       -7.83091
C        -10.68998        4.61035       -8.06693
C        -11.10524        4.93470       -9.37590
C        -11.75383        6.15133       -9.68294
C        -12.01676        7.10353       -8.70813
C        -11.66805        6.82620       -7.40984
C        -11.06445        5.60396       -7.11302
C        -10.88123        4.04095      -10.40954
C        -10.40565        2.75657      -10.17498
C        -10.10105        2.30015       -8.85623
C        -10.01355        0.86184       -8.74019
C         -9.84535        0.08142       -9.91731
C         -9.95455        0.61421      -11.18743
C        -10.30014        1.93938      -11.30697
C        -10.42331        0.06102       -7.53337
C        -10.91943        0.51184       -6.34700
C        -11.49314       -0.62151       -5.64383
C        -12.05222       -0.75026       -4.42318
C        -12.57464       -2.07325       -4.09297
C        -13.08534       -2.58894       -2.95611
C        -13.51992       -3.98079       -3.19509
C        -13.31145       -4.29735       -4.49049
C        -12.64124       -3.16916       -5.07275
C        -12.05151       -3.05096       -6.26954
C        -11.41228       -1.78383       -6.52133
C        -10.68883       -1.40335       -7.57503
C        -14.04519       -4.94052       -2.26117
C        -13.36853       -5.33061       -1.17454
H         -3.81244        3.29684        9.75598
H         -3.91930        6.50361        5.95732
H         -3.74642        1.42148        8.19384
H         -3.88858        4.58362        4.32656
H         -3.28897       -1.53245        3.32191
H         -3.32222        0.64322        1.37378
H         -2.65662       -2.74880       -2.27702
H         -4.19133        0.49697       -0.63248
H         -3.73668       -1.00363       -3.27576
H        -12.08322        6.36166      -10.69902
H        -12.52074        8.03266       -8.95096
H        -11.88780        7.52093       -6.60383
H        -10.99846        5.43422       -6.05173
H        -11.17135        4.32586      -11.42224
H         -9.70287       -0.99333       -9.88018
H         -9.86524       -0.02265      -12.06296
H        -10.49667        2.32679      -12.30535
H        -11.04732        1.52501       -6.01333
H        -12.13690        0.06579       -3.71984
H        -13.18679       -2.08866       -2.00712
H        -13.51847       -5.23105       -4.98593
H        -12.04895       -3.83699       -7.01232
H        -10.44487       -2.07301       -8.38220
H        -14.99138       -5.41339       -2.51309
H        -12.39398       -4.91652       -0.93263
H        -13.76040       -6.10642       -0.52587
