97

C         -3.07502       -0.70205       -3.35322
O         -2.04877       -1.47146       -2.91251
C         -2.57894       -2.54538       -2.24455
C         -3.95626       -2.40123       -2.22526
C         -4.28368       -1.23416       -2.96755
C         -5.58740       -0.71073       -3.31017
O         -5.75531        0.29015       -3.99432
O         -6.58523       -1.50654       -2.82942
C         -7.88874       -1.20901       -3.32616
C         -1.76551       -3.58752       -1.67633
S         -2.48709       -4.88148       -0.84216
C         -0.98661       -5.58506       -0.39107
C          0.06348       -4.77750       -0.82286
C         -0.39038       -3.73719       -1.73767
C          0.57456       -2.89501       -2.55965
N          0.28194       -2.94547       -4.06115
O          0.55626       -1.92818       -4.71446
O         -0.11955       -4.01556       -4.54000
C          2.03730       -3.36572       -2.41564
C          2.37664       -3.74050       -0.97276
C          1.53577       -4.94513       -0.49665
N          1.77238       -5.08306        1.00279
O          1.46675       -4.12857        1.73059
O          2.27693       -6.14893        1.39069
C         -0.96090       -6.84916        0.28309
C         -1.95334       -7.25765        1.09359
C         -2.04978       -8.56718        1.67333
N         -2.34455       -8.79803        3.01961
C         -2.62010       -7.79314        4.02743
C         -4.11577       -7.54776        4.17589
C         -2.49589      -10.16998        3.29747
O         -2.78326      -10.73865        4.33065
C         -2.28002      -10.78356        1.97936
C         -2.00826       -9.73865        1.03309
C         -1.86424      -10.36638       -0.29346
O         -1.64579       -9.80965       -1.34899
N         -2.07123      -11.73536       -0.01570
C         -2.13790      -12.73151       -1.06609
C         -0.77165      -13.29627       -1.41378
C         -2.29766      -11.95145        1.34170
C         -2.58165      -13.22046        1.93456
C         -1.71306      -14.24199        1.96094
C         -2.00406      -15.52885        2.59457
C         -2.79667      -15.61376        3.73854
C         -3.04613      -16.86151        4.32192
N         -3.91972      -16.85814        5.48072
O         -3.53603      -16.22001        6.47012
O         -5.00827      -17.43923        5.37774
C         -2.48822      -18.04879        3.82102
C         -1.69485      -17.94058        2.66586
C         -1.44733      -16.69803        2.06634
C         -2.76445      -19.37364        4.40125
C         -1.91266      -20.40947        4.40451
C         -2.27704      -21.68093        4.93040
O         -1.35323      -22.41156        5.65053
C         -1.92509      -23.56106        6.06609
C         -3.21255      -23.63551        5.61311
C         -3.45539      -22.44310        4.85959
C         -4.68750      -22.11158        4.15146
O         -4.83353      -21.14492        3.41387
O         -5.67650      -23.01592        4.41438
C         -6.94786      -22.70863        3.83959
H         -2.79496        0.16577       -3.93543
H         -4.66135       -3.07899       -1.76182
H         -8.61932       -1.64850       -2.64157
H         -8.00655       -1.67863       -4.30706
H         -8.07785       -0.13354       -3.38865
H          0.48782       -1.84388       -2.25920
H          2.71020       -2.56910       -2.75853
H          2.23934       -4.23440       -3.05727
H          2.21042       -2.85619       -0.34236
H          3.44463       -3.97921       -0.89435
H          1.90894       -5.86562       -0.96219
H         -0.12144       -7.51231        0.08037
H         -2.79206       -6.60591        1.32673
H         -2.09586       -6.86262        3.78818
H         -2.22668       -8.15684        4.98355
H         -4.54958       -7.17264        3.24333
H         -4.30701       -6.81436        4.96476
H         -4.64350       -8.47172        4.43692
H         -2.55579      -12.25427       -1.96058
H         -2.83134      -13.53039       -0.78074
H         -0.09152      -12.50387       -1.74016
H         -0.85884      -14.03341       -2.21726
H         -0.30711      -13.79047       -0.55845
H         -3.55312      -13.29119        2.41944
H         -0.72970      -14.14815        1.51028
H         -3.22529      -14.71875        4.18596
H         -1.27070      -18.82691        2.19652
H         -0.82867      -16.66208        1.17062
H         -3.75433      -19.49532        4.83319
H         -0.89104      -20.30670        4.05080
H         -1.29747      -24.21196        6.65876
H         -3.90234      -24.45155        5.78204
H         -7.51674      -23.63930        3.76482
H         -6.86438      -22.28093        2.83548
H         -7.48286      -22.02454        4.50443
