106

C          2.51467       -1.51514       -4.28773
S          3.38756       -0.22399       -3.62667
C          2.88261        0.87601       -4.86952
C          2.09955        0.20332       -5.80893
C          1.86985       -1.17297       -5.45387
C          1.00382       -2.11358       -6.23361
C          0.44471       -1.54737       -7.54070
C          1.25512       -2.04734       -8.71428
O          2.29039       -1.53449       -9.10973
O          0.73843       -3.15344       -9.29671
C          0.30619       -0.01934       -7.58995
O         -0.87782        0.34291       -6.85874
C          1.51346        0.78234       -7.06850
C          3.30425        2.24275       -4.81228
C          3.48708        2.89278       -3.64111
C          3.89274        4.27335       -3.90948
C          3.95011        4.38109       -5.37327
C          3.59421        3.18693       -5.88463
C          4.33109        5.48670       -6.16716
N          4.66149        6.37830       -6.83465
C          4.13377        5.20302       -2.96156
C          4.53598        6.58795       -3.19754
C          4.65111        7.22853       -2.01193
C          4.33989        6.26410       -0.97045
C          4.03727        5.07298       -1.50682
C          3.67694        3.95975       -0.72054
N          3.38527        3.05873       -0.04558
C          5.01987        8.61517       -1.88444
N          5.83194        9.15956       -0.88118
C          6.41214        8.47767        0.25600
C          5.53169        8.59147        1.49434
C          6.00521       10.55241       -1.04825
O          6.63692       11.34424       -0.37979
C          5.21500       10.83294       -2.25414
C          4.63529        9.60126       -2.70191
C          3.80673        9.89340       -3.88477
O          3.13111        9.10855       -4.51767
N          3.98395       11.28058       -4.05273
C          3.33869       12.01381       -5.12537
C          3.81622       11.57337       -6.50191
C          4.81217       11.81007       -3.06440
C          5.10317       13.20325       -2.94225
C          6.34609       13.70681       -2.96563
C          6.64066       15.13727       -2.83593
C          5.73326       16.12194       -3.22526
C          6.06619       17.47908       -3.09231
N          5.03545       18.41901       -3.48863
O          3.95706       18.35911       -2.87744
O          5.28351       19.17585       -4.43465
C          7.31023       17.91249       -2.59802
C          8.20879       16.89783       -2.22084
C          7.88339       15.53738       -2.34173
C          7.65779       19.34343       -2.43236
C          8.83726       19.82629       -2.00889
C          9.01041       21.22284       -1.81235
S          8.66080       21.88166       -0.26412
C          9.13921       23.44227       -0.74210
C          9.56798       23.48231       -2.05092
C          9.46873       22.19783       -2.68840
C          9.81474       21.98928       -4.13866
C         10.53066       23.17808       -4.79791
C         12.03272       23.02147       -4.70030
O         12.71378       23.39536       -3.75873
O         12.58345       22.40517       -5.77252
C         10.09657       24.55497       -4.27068
O          8.78314       24.83845       -4.78141
C         10.10866       24.69771       -2.73991
H          2.51547       -2.47378       -3.78685
H          0.15816       -2.38233       -5.58615
H          1.56006       -3.04242       -6.41619
H         -0.56708       -1.96019       -7.65942
H         -0.10659       -3.47435       -8.92251
H          0.11442        0.29649       -8.62291
H         -0.63600        0.43792       -5.91914
H          1.19224        1.81424       -6.88208
H          2.30141        0.80684       -7.82998
H          3.34654        2.45058       -2.67054
H          3.55311        2.93475       -6.93297
H          4.70202        7.04588       -4.15960
H          4.32908        6.47798        0.08460
H          7.37891        8.94481        0.47842
H          6.61951        7.43350        0.00481
H          5.40594        9.63699        1.79292
H          5.97796        8.04574        2.33096
H          4.52863        8.19175        1.32282
H          3.51081       13.08857       -5.01283
H          2.26001       11.84021       -5.04282
H          4.89970       11.69413       -6.60017
H          3.32895       12.16863       -7.28030
H          3.57899       10.52168       -6.69099
H          4.23264       13.83997       -2.81026
H          7.20521       13.04592       -3.07222
H          4.76277       15.85200       -3.63548
H          9.18640       17.12876       -1.80504
H          8.61489       14.79486       -2.02286
H          6.87196       20.06441       -2.65426
H          9.67992       19.19696       -1.74833
H          9.10020       24.25691       -0.03179
H          8.86971       21.82013       -4.67290
H         10.40907       21.07404       -4.25206
H         10.27788       23.15572       -5.86750
H         11.96248       22.17171       -6.48848
H         10.74731       25.33238       -4.68915
H          8.13224       24.41557       -4.19090
H          9.51473       25.57209       -2.44675
H         11.13252       24.86205       -2.38467
