110

C         -1.21652        0.41773       -2.23534
C         -1.63478        0.74708       -3.47627
C         -2.79255        0.15030       -4.05558
N         -3.74646       -0.33580       -4.50066
C         -0.85719        1.57986       -4.33246
N         -0.22188        2.22588       -5.05750
C         -1.73522       -0.69256       -1.41093
C         -0.63375       -1.31050       -0.79128
C         -0.76338       -2.31908        0.14299
C         -2.05616       -2.60926        0.59354
C         -3.18404       -1.92995        0.03536
C         -3.02051       -1.01710       -1.02145
C         -4.44545       -2.11974        0.61319
C         -4.60005       -2.94728        1.72608
C         -3.50802       -3.64146        2.24036
C         -2.24624       -3.48919        1.66576
C          0.58222       -0.48874       -1.00911
O          1.71316       -0.73297       -0.65341
C          0.04242        0.78626       -1.59959
C          0.47763        1.93227       -1.04937
C         -0.26764        3.15214       -1.00173
S          0.01837        4.35165       -2.20644
C         -0.98559        5.50585       -1.45137
C         -1.20156        6.86471       -2.03151
F         -0.55336        7.07181       -3.20288
F         -2.52381        7.07464       -2.27285
F         -0.80661        7.84168       -1.17630
C         -1.52333        5.00699       -0.28478
C         -1.15751        3.64387       -0.04613
C         -1.64596        2.93703        1.09915
C         -1.06725        2.82901        2.31871
N          0.16527        3.47995        2.69170
O          0.42466        4.58247        2.19296
O          0.85728        2.90712        3.54237
C         -1.89211        2.10240        3.25585
C         -3.04831        1.79852        2.64764
C         -3.04488        2.41853        1.31496
C         -4.13517        2.61547        0.53275
C         -4.10139        3.08502       -0.85616
C         -5.35720        3.31489       -1.26211
C         -6.24406        2.97697       -0.17884
N         -7.66746        3.18080       -0.27664
O         -8.41052        2.24485        0.04233
O         -8.03833        4.26654       -0.74158
C         -5.58585        2.52491        0.91454
C         -6.20659        2.15707        2.16911
C         -5.94202        2.70629        3.36861
C         -6.59481        2.27233        4.57849
C         -6.04951        2.33226        5.81381
C         -7.06495        1.91815        6.79046
C         -8.24838        1.55689        5.99802
C         -7.96061        1.79175        4.71037
C         -9.49582        1.03646        6.41872
N        -10.51718        0.60166        6.73964
C         -6.93193        1.94660        8.13257
C         -7.99801        1.65239        9.08677
C         -7.53847        1.86758       10.32793
C         -6.14624        2.28003       10.23828
C         -5.76791        2.32014        8.94813
C         -4.45741        2.63301        8.52201
N         -3.37903        2.87270        8.16040
C         -8.33209        1.65735       11.50990
C         -9.47134        2.32119       11.75855
C        -10.28126        2.04641       12.92598
C        -11.11383        2.90138       13.54133
C        -11.89843        2.71076       14.78346
C        -12.44274        1.55552       15.24120
C        -13.27904        1.49655       16.39280
N        -13.95662        1.44502       17.33367
C        -12.28013        0.31051       14.56664
N        -12.14205       -0.70565       14.02347
C        -12.15020        4.07506       15.33374
C        -11.80432        5.01787       14.35768
C        -11.20739        4.36146       13.18823
O        -10.84494        4.93368       12.18170
C        -11.95221        6.38599       14.52250
C        -12.45382        6.85196       15.74099
C        -12.77038        5.92432       16.77236
C        -12.60722        4.53860       16.56032
C        -13.24634        6.41160       17.99846
C        -13.42077        7.78086       18.20437
C        -13.12050        8.68470       17.18880
C        -12.63645        8.22388       15.96444
H          0.11800       -2.75536        0.60520
H         -3.87936       -0.49284       -1.43096
H         -5.31565       -1.58836        0.23298
H         -5.57492       -3.04541        2.19752
H         -3.63344       -4.28834        3.10542
H         -1.40510       -4.02926        2.09687
H          1.38993        1.91265       -0.45099
H         -2.16244        5.59542        0.36733
H         -1.59138        1.81943        4.25487
H         -3.82003        1.17535        3.07201
H         -3.24180        3.20344       -1.48863
H         -5.67824        3.67065       -2.22922
H         -6.94576        1.36074        2.09862
H         -5.19810        3.49623        3.48243
H         -5.04677        2.66346        6.02688
H         -8.62928        1.64663        3.87408
H         -9.00288        1.32209        8.87118
H         -5.53023        2.50867       11.09614
H         -7.95324        0.91340       12.20580
H         -9.81649        3.08669       11.06391
H        -10.14098        1.04076       13.31375
H        -11.66741        7.06404       13.72258
H        -12.83537        3.86346       17.37898
H        -13.49178        5.72651       18.80802
H        -13.79457        8.14173       19.15919
H        -13.26175        9.75028       17.35017
H        -12.40441        8.94783       15.18574
