108

C         -4.52674       -1.99426        1.19154
C         -3.49902       -2.61090        0.55776
C         -3.00095       -3.88025        0.95570
N         -2.58995       -4.91271        1.27786
C         -2.86313       -2.07024       -0.59914
N         -2.33893       -1.61970       -1.53245
C         -5.34476       -2.54814        2.31893
C         -6.50230       -1.77653        2.43986
C         -7.49133       -1.98524        3.39504
C         -7.31966       -3.05883        4.29316
C         -6.16707       -3.85114        4.17950
C         -5.16043       -3.60441        3.20663
S         -6.17094       -5.11652        5.35869
C         -7.65039       -4.60995        5.99465
C         -8.16200       -3.50628        5.36758
Br        -8.50788       -5.47450        7.41826
C         -6.51885       -0.69725        1.44764
O         -7.47576        0.01256        1.22365
C         -5.16292       -0.71507        0.80046
C         -4.63290        0.34914        0.17431
C         -5.28795        1.60764       -0.07044
C         -4.84158        2.78612        0.42445
C         -5.77828        3.82362        0.00897
C         -6.77307        3.16156       -0.81209
C         -6.48781        1.85916       -0.86457
F         -7.81821        3.75055       -1.40708
C         -5.74035        5.11678        0.34692
C         -6.70654        6.11534       -0.07064
C         -6.36303        7.29905        0.47872
C         -5.15091        7.09420        1.27325
C         -4.79189        5.80880        1.18883
F         -3.73934        5.25000        1.79847
C         -7.08554        8.53121        0.30162
C         -8.19547        8.66267       -0.43844
C         -8.89132        9.90392       -0.60236
C         -9.61437       10.19256       -1.70638
C        -10.20975       11.50563       -1.50921
C         -9.80595       11.94250       -0.19057
C         -9.03734       10.99737        0.35434
F        -10.15445       13.09489        0.39405
C        -10.97692       12.15575       -2.38815
C        -11.58459       13.46135       -2.19656
C        -12.27985       13.75899       -3.31422
C        -12.13412       12.65182       -4.25984
C        -11.36742       11.71190       -3.70658
F        -11.01754       10.55706       -4.28549
C        -13.01933       14.98011       -3.47189
C        -13.69649       15.28262       -4.58599
C        -14.43378       16.49844       -4.75636
C        -14.64896       17.05262       -5.97002
C        -15.47641       18.23281       -5.77412
C        -15.74851       18.30531       -4.35261
C        -15.14312       17.28126       -3.74791
F        -16.49537       19.23405       -3.74271
C        -15.89956       19.06667       -6.72944
C        -16.73960       20.22981       -6.52023
C        -16.98615       20.79630       -7.72153
C        -16.25848       20.03789       -8.73987
C        -15.63707       19.01109       -8.14966
F        -14.89737       18.08397       -8.77065
C        -17.78971       21.97770       -7.91829
C        -18.82020       22.29695       -7.12025
C        -19.65067       23.45731       -7.31415
C        -20.72158       23.81554       -6.59252
C        -21.44121       23.24842       -5.44112
C        -21.79607       21.95408       -5.24280
C        -22.55363       21.52223       -4.11577
N        -23.15696       21.16753       -3.19000
C        -21.53438       20.92904       -6.19968
N        -21.34889       20.07770       -6.96589
C        -21.98750       24.41580       -4.68309
C        -21.89871       25.54599       -5.50332
C        -21.18233       25.23191       -6.74769
O        -20.96372       25.99733       -7.66298
C        -22.37609       26.80229       -5.15461
C        -22.98998       26.93918       -3.89096
C        -23.05039       25.82074       -3.04449
C        -22.53853       24.55093       -3.41478
S        -23.82041       26.21621       -1.54856
C        -24.08612       27.81051       -2.03295
C        -23.59625       28.08937       -3.28025
Br       -24.96532       29.07305       -0.96504
H         -8.36000       -1.33389        3.44498
H         -4.28662       -4.24559        3.19699
H         -9.09746       -3.03316        5.64246
H         -3.59795        0.35721       -0.15553
H         -3.97173        2.94590        1.04191
H         -7.06063        1.10717       -1.38105
H         -7.55205        5.91633       -0.70811
H         -4.64606        7.86185        1.83579
H         -6.66437        9.39854        0.80499
H         -8.62286        7.81840       -0.97504
H         -9.72594        9.57385       -2.58364
H         -8.60117       11.02002        1.33845
H        -11.49279       14.07232       -1.31197
H        -12.57139       12.60223       -5.24227
H        -12.99672       15.67742       -2.63656
H        -13.70382       14.60488       -5.43569
H        -14.27580       16.69390       -6.91676
H        -15.17686       17.05436       -2.69537
H        -17.10442       20.55987       -5.56117
H        -16.25323       20.26185       -9.79275
H        -17.53926       22.58861       -8.78241
H        -19.03469       21.65885       -6.27037
H        -19.29893       24.14412       -8.08802
H        -22.27646       27.64269       -5.83623
H        -22.60034       23.73531       -2.70301
H        -23.66760       29.06066       -3.75508
