93

C          5.94248       -8.95257      -10.07090
C          5.48317       -7.99948       -9.20533
C          5.44865       -8.44456       -7.85914
C          5.79570       -9.75773       -7.70122
S          6.24775      -10.43307       -9.22213
C          5.10680       -7.39012       -6.93939
O          4.72669       -7.47045       -5.78872
C          5.26624       -6.16370       -7.82615
C          5.10380       -6.60879       -9.25539
C          4.56159       -5.90255      -10.26234
N          4.14311       -6.43731      -11.52111
O          4.20603       -5.68989      -12.50593
O          3.73352       -7.60424      -11.56049
N          4.07034       -4.58496      -10.04366
O          4.88018       -3.65623      -10.16978
O          2.89442       -4.47345       -9.67576
C          5.79949       -5.00886       -7.38240
C          6.24063       -4.82045       -6.03955
C          5.54498       -4.33564       -4.93235
C          6.36572       -4.30901       -3.78214
C          7.62046       -4.81443       -4.04119
S          7.90287       -5.17765       -5.63703
C          8.33556       -4.90408       -2.82645
C          7.54731       -4.42069       -1.80656
C          6.27154       -3.96358       -2.36201
C          5.26680       -3.32748       -1.73026
C          4.10365       -2.89754       -2.42499
N          3.15906       -2.54148       -2.99766
C          5.33964       -3.00756       -0.34087
N          5.40978       -2.74546        0.77891
C          8.18116       -4.55144       -0.55097
C          9.42335       -5.18324       -0.67251
S          9.79237       -5.53089       -2.33845
C         10.31412       -5.58849        0.39774
C         11.68999       -5.71172        0.41109
C         12.19737       -6.17670        1.68370
N         13.52363       -6.36771        1.93335
C         14.30488       -6.08921        0.85214
C         15.76076       -6.26446        1.06329
O         16.25180       -6.49125        2.16147
C         16.64339       -6.15898       -0.11258
C         16.17280       -5.80936       -1.30991
C         14.74625       -5.49423       -1.52585
O         14.37994       -5.12058       -2.63291
C         13.81538       -5.67107       -0.38482
N         12.49445       -5.43956       -0.65801
C         11.19946       -6.45215        2.59889
S          9.66518       -6.06329        1.92555
C         11.30562       -7.01032        3.93351
C         10.36241       -7.79053        4.61387
C         10.87035       -8.24501        5.85039
C         12.13856       -7.76512        6.07541
S         12.74115       -6.78138        4.89093
C         12.64430       -8.34288        7.25228
C         11.71142       -9.21511        7.75917
C         10.49387       -9.13382        6.95179
C          9.29558       -9.69814        7.19539
C          8.18169       -9.47213        6.34251
N          7.27631       -9.27405        5.64276
C          9.07408      -10.50468        8.34592
N          8.90266      -11.15708        9.28911
C         12.24476       -9.96397        8.82847
C         13.59137       -9.64828        9.04829
S         14.05166       -8.24718        8.11552
C         14.48598      -10.28638        9.95638
C         15.81801      -10.41499        9.82336
C         16.82118       -9.95873        8.81033
C         16.79569      -10.05834        7.46554
N         17.87308       -9.54970        6.68501
O         17.83768       -8.34619        6.40160
O         18.79960      -10.32758        6.41894
N         15.85260      -10.82117        6.69375
O         15.11115      -11.61623        7.28824
O         15.84906      -10.68006        5.46393
C         17.96175       -9.58712        9.62216
C         19.12867       -8.88962        9.46956
S         20.05211       -8.93394       10.93455
C         18.86538       -9.87378       11.75628
C         17.80478      -10.11527       10.92854
C         16.53553      -10.76330       11.11793
O         16.11706      -11.35215       12.09427
H          6.13660       -8.90892      -11.13472
H          5.85736      -10.33693       -6.78870
H          6.06733       -4.20884       -8.06611
H          4.49971       -4.05635       -4.98281
H          7.76683       -4.25322        0.40529
H         17.69326       -6.37559        0.05434
H         16.81918       -5.73084       -2.17747
H          9.40031       -8.05336        4.19041
H         11.74181      -10.76035        9.36595
H         14.01616      -10.67591       10.86211
H         19.52805       -8.34892        8.62089
H         18.99675      -10.16782       12.78993
