103

C         -0.74390        0.09750       -1.88947
C         -1.29451        1.21205       -2.52823
C         -0.47365        2.24938       -2.96213
C          0.89964        2.19201       -2.73577
C          1.46261        1.11005       -2.04821
C          2.82348        1.13177       -1.71324
C          3.33097        0.12487       -0.91272
C          2.53911       -0.99521       -0.61587
C          1.20077       -1.06995       -0.96300
C          0.63407        0.02577       -1.63623
C          3.34469       -2.00833        0.10460
O          2.97639       -3.10370        0.47107
C          4.72286       -1.41336        0.21280
C          4.59384        0.00127       -0.14504
C          5.23577        1.04721        0.43065
C          6.11078        0.86936        1.54363
N          6.79381        0.74377        2.47305
C          4.99807        2.40141        0.06246
N          4.81261        3.50214       -0.25421
C          5.78465       -2.21561        0.39223
C          7.14272       -1.82264        0.17602
C          7.69196       -0.90232       -0.72672
C          9.09835       -0.85659       -0.64042
C          9.57498       -1.79426        0.24471
S          8.40543       -2.63344        1.07126
C         10.98205       -1.83287        0.14688
C         11.39262       -0.90666       -0.78452
C         10.22519       -0.18253       -1.28800
C         10.19160        0.88951       -2.10451
C         11.38076        1.46677       -2.62954
N         12.35631        1.92928       -3.05279
C          8.96189        1.52119       -2.43785
N          7.93758        2.01264       -2.68032
C         12.78646       -0.96924       -0.99831
C         13.38823       -1.96923       -0.22048
S         12.19479       -2.76118        0.79140
C         14.74940       -2.41320       -0.18246
C         15.54807       -2.33112       -1.26433
C         16.93010       -2.83721       -1.18758
C         17.77593       -2.79822       -2.25007
C         19.11108       -3.30087       -2.17762
N         20.19262       -3.71541       -2.10087
C         17.38057       -2.27239       -3.50957
N         17.02888       -1.83667       -4.52168
C         17.34568       -3.39920        0.10057
C         16.47474       -3.44868        1.12455
O         15.17796       -2.95429        1.02820
C         16.81338       -4.00462        2.39841
C         16.30891       -3.65836        3.65871
C         16.86839       -4.45206        4.68230
C         17.76439       -5.36917        4.18069
S         17.95896       -5.32570        2.53756
C         18.27637       -6.14263        5.24330
C         17.69288       -5.71548        6.41058
C         16.78444       -4.60935        6.13384
C         16.07110       -3.88871        7.02182
C         16.13049       -4.13909        8.42237
N         16.19159       -4.31945        9.56767
C         15.24977       -2.80850        6.60641
N         14.58744       -1.91887        6.26517
C         18.13557       -6.45522        7.51684
C         19.06595       -7.43005        7.15535
S         19.37172       -7.37772        5.42993
C         19.81035       -8.35335        7.95350
C         19.36854       -8.95376        9.07310
C         20.12645       -9.77921       10.05372
C         21.17121      -10.60602        9.79862
C         21.74039      -11.45659       10.78961
N         22.20484      -12.15072       11.59513
C         21.73631      -10.74997        8.49771
N         22.19779      -10.85763        7.43904
C         19.38212       -9.68305       11.34880
C         18.13169       -9.11299       11.08547
C         17.16913       -8.86626       12.04868
C         17.46485       -9.19932       13.36823
C         16.52482       -8.96306       14.37887
C         16.81409       -9.28678       15.70206
C         18.04595       -9.84851       16.02564
C         18.99612      -10.08798       15.02855
C         18.72914       -9.77045       13.68746
C         19.68564      -10.00110       12.66660
C         18.00093       -8.77219        9.67026
O         16.95772       -8.46062        9.13603
H         -1.40925       -0.69742       -1.55898
H         -2.36905        1.27510       -2.68110
H         -0.90273        3.11563       -3.45968
H          1.52098        3.02278       -3.06650
H          3.43923        1.96680       -2.03456
H          0.60766       -1.93345       -0.67471
H          5.61064       -3.26398        0.64083
H          7.09186       -0.33554       -1.42659
H         13.34866       -0.35568       -1.69257
H         15.17220       -1.92055       -2.19672
H         18.35735       -3.77422        0.22133
H         15.57693       -2.86848        3.78655
H         17.80509       -6.30631        8.53534
H         20.83247       -8.50290        7.61975
H         16.22404       -8.40869       11.76837
H         15.55781       -8.52182       14.14355
H         16.07655       -9.09867       16.47841
H         18.26826      -10.10074       17.05973
H         19.94957      -10.52885       15.31331
H         20.65007      -10.41199       12.95020
