119

C          0.55595       -0.40645        0.88806
C         -0.23251       -1.70562        1.28101
C          0.23143       -2.98184        0.91059
C         -0.47492       -4.15727        1.20404
C         -1.69247       -4.09442        1.86415
C         -2.18776       -2.85675        2.24927
C         -1.47604       -1.68346        1.95389
C          0.23171        0.19136       -0.50526
C         -0.71270       -0.38183       -1.37725
C         -1.02016        0.21162       -2.61090
C         -0.40468        1.39801       -2.99879
C          0.51643        1.99903       -2.15142
C          0.83217        1.40266       -0.92606
C          2.09684       -0.49796        1.20712
C          2.46060        0.04451        2.40398
C          1.38313        0.63866        3.21039
C          1.31831        0.86944        4.54493
C          2.33831        0.45443        5.44741
N          3.14606        0.09274        6.19507
C          0.17745        1.47825        5.15235
N         -0.74302        1.97066        5.66074
S          0.04094        1.00657        2.15228
C          3.81773        0.18510        2.81852
N          4.91602        0.35485        3.15006
C          3.14475       -1.08017        0.37917
C          3.91407       -0.54363       -0.67170
C          4.87622       -1.47626       -1.16278
C          4.79173       -2.66736       -0.48466
S          3.71402       -2.69402        0.76908
C          5.73434       -3.57593       -1.00526
C          6.45579       -2.96827       -2.00019
C          5.96326       -1.58982       -2.16338
C          6.42448       -0.64635       -3.00228
C          7.50893       -0.90290       -3.89391
N          8.39224       -1.08739       -4.62373
C          5.86037        0.66576       -3.02584
N          5.39177        1.72355       -3.03912
C          7.42794       -3.85565       -2.53738
C          7.41384       -5.11318       -1.90332
S          6.11832       -5.15869       -0.72409
C          8.25790       -6.33134       -2.13383
C          8.79137       -6.69627       -3.39324
C          9.59039       -7.89397       -3.59117
N         10.06058       -8.17121       -4.82448
C          9.75705       -7.36003       -5.85130
C          9.01327       -6.23012       -5.66472
N          8.52939       -5.89324       -4.45125
C          9.90641       -8.80344       -2.55124
C          9.38870       -8.46965       -1.26837
C          8.57020       -7.21506       -1.05250
N          8.22110       -7.07045        0.23897
S          8.76830       -8.37487        1.07672
N          9.52923       -9.18774       -0.13798
C         10.72464      -10.04864       -2.70206
C         11.61152      -10.66244       -1.79981
C         12.18353      -11.84755       -2.32931
C         11.72515      -12.09899       -3.60058
S         10.60884      -11.01116       -4.16259
C         12.31443      -13.29016       -4.08012
C         13.14147      -13.80605       -3.10839
C         13.11183      -12.91743       -1.93940
C         13.77493      -13.05769       -0.77490
C         14.64623      -14.15751       -0.54267
N         15.35271      -15.05960       -0.36139
C         13.63616      -12.12100        0.28709
N         13.52442      -11.36313        1.15846
C         13.73938      -15.02121       -3.52761
C         13.35451      -15.36453       -4.82895
S         12.23481      -14.18726       -5.47446
C         13.76127      -16.48821       -5.64704
C         14.83755      -16.35201       -6.47532
C         15.18543      -17.52309       -7.29390
C         15.99185      -17.62040       -8.38206
C         16.59467      -16.49530       -9.01388
N         17.05637      -15.59042       -9.57514
C         16.24529      -18.87496       -9.02506
N         16.46884      -19.88278       -9.55204
S         14.30587      -18.93071       -6.70295
C         13.07596      -17.88465       -5.65075
C         11.75825      -17.94028       -6.49479
C         10.83712      -19.00278       -6.37636
C          9.70063      -19.08759       -7.19860
C          9.45693      -18.12400       -8.17174
C         10.35898      -17.08337       -8.33677
C         11.49825      -17.00552       -7.52506
C         13.03963      -18.46098       -4.19909
C         14.18468      -19.03355       -3.59012
C         14.15768      -19.55626       -2.29253
C         12.99000      -19.50220       -1.54514
C         11.86383      -18.89046       -2.08735
C         11.89337      -18.35694       -3.38650
C         15.64054      -15.17023       -6.48307
N         16.31274      -14.22553       -6.46248
H          1.14736       -3.10608        0.35139
H         -0.07383       -5.12158        0.89848
H         -2.25651       -5.00182        2.06569
H         -3.13950       -2.79670        2.77319
H         -1.94742       -0.75235        2.26048
H         -1.24958       -1.29093       -1.11421
H         -1.75523       -0.24895       -3.26763
H         -0.65121        1.85952       -3.95225
H          0.98169        2.94057       -2.43583
H          1.53912        1.92754       -0.28585
H          3.78560        0.47211       -1.02976
H          8.12196       -3.62234       -3.33743
H         10.13063       -7.66009       -6.82331
H          8.78095       -5.55964       -6.48380
H         11.80964      -10.25815       -0.81373
H         14.42190      -15.63276       -2.94833
H         10.99039      -19.79895       -5.64987
H          9.00547      -19.91705       -7.08542
H          8.57640      -18.19016       -8.80723
H         10.18443      -16.33221       -9.10458
H         12.18346      -16.19121       -7.74216
H         15.13770      -19.09363       -4.11120
H         15.05210      -20.01016       -1.86669
H         12.96367      -19.92217       -0.54194
H         10.95467      -18.83029       -1.49285
H         10.99340      -17.86508       -3.75112
