106

C          4.54430        2.36129       -1.44558
S          5.56922        1.00628       -1.45119
C          4.40500        0.00454       -0.64728
C          3.24982        0.73071       -0.34368
C          3.34055        2.08714       -0.83620
C          2.31809        3.08440       -0.70881
N          1.47431        3.87887       -0.60313
C          2.03498        0.27798        0.41090
F          2.10041       -0.98373        0.89785
F          1.79043        1.08135        1.47680
F          0.93122        0.32699       -0.37952
C          4.81227       -1.34129       -0.39109
C          3.96792       -2.37872       -0.45967
C          4.43997       -3.73717       -0.11133
N          5.48123       -4.01084        0.63556
C          5.45252       -5.36659        0.72368
C          4.32432       -5.89372        0.00225
C          4.33778       -7.37381        0.08453
O          3.55959       -8.17171       -0.38723
C          5.55873       -7.62816        0.88656
C          6.16210       -6.36631        1.23689
N          7.29596       -6.57664        1.95381
C          7.35913       -7.87783        2.01836
C          6.27732       -8.63931        1.35575
C          3.64071       -4.91659       -0.57515
C          2.52198       -4.97696       -1.45700
C          2.54656       -4.45032       -2.68996
C          1.43261       -4.47416       -3.62759
C          1.39156       -3.48446       -4.55394
C          0.31339       -3.42857       -5.51861
C          0.04766       -2.53181       -6.50402
C          0.80506       -1.27224       -6.88730
C          0.88230       -0.29415       -5.67757
N          1.56887        0.96843       -5.95946
C          2.19273       -1.64044       -7.48917
N          2.99604       -0.48769       -7.91947
C         -1.19458       -3.01478       -7.11996
C         -1.91289       -2.56870       -8.16459
C         -3.21295       -3.24370       -8.60752
C         -3.57234       -4.48948       -7.79868
C         -2.84390       -4.93927       -6.76308
C         -1.64952       -4.21831       -6.41768
C         -0.73092       -4.46995       -5.47533
C         -0.62257       -5.55134       -4.52817
C          0.41626       -5.54933       -3.67006
C         -4.34872       -2.24168       -8.60060
C         -5.09904       -1.93532       -7.52799
C         -6.22110       -0.97440       -7.62083
N         -6.90583       -0.71468       -8.70880
C         -7.85133        0.16235       -8.28092
C         -7.69091        0.42352       -6.87503
C         -8.71485        1.40886       -6.44417
O         -8.90421        1.89780       -5.35334
C         -9.46618        1.64312       -7.69500
C         -8.88450        0.85618       -8.75211
N         -9.56631        1.06790       -9.90762
C        -10.48761        1.92049       -9.54971
C        -10.49692        2.35028       -8.13568
C         -6.68353       -0.27916       -6.37018
C         -6.10751       -0.30706       -5.05848
C         -6.80137       -0.10014       -3.92538
C         -6.21074       -0.13845       -2.62255
S         -4.57902        0.31157       -2.35879
C         -4.60922       -0.08947       -0.68419
C         -5.90062       -0.41266       -0.27879
C         -6.80639       -0.45665       -1.41153
C         -8.19500       -0.82926       -1.30654
N         -9.30679       -1.14610       -1.21960
C         -6.38885       -0.69825        1.10872
F         -5.45844       -0.56648        2.08252
F         -7.40718        0.13639        1.44532
F         -6.87270       -1.96294        1.20132
C         -3.35575        0.00521       -0.01188
C         -2.96812       -0.85074        0.93962
H          4.87393        3.29684       -1.87776
H          5.86399       -1.52427       -0.16410
H          2.92579       -2.27747       -0.73254
H          8.16394       -8.42896        2.52704
H          6.15482       -9.70020        1.27563
H          1.64627       -5.50352       -1.08530
H          3.44938       -3.94905       -3.04052
H          2.14720       -2.70967       -4.57199
H          0.24464       -0.74988       -7.67399
H          1.40010       -0.75633       -4.83440
H         -0.13068       -0.05638       -5.33312
H          2.41556        0.73862       -6.50224
H          1.90993        1.36969       -5.08771
H          2.04788       -2.29389       -8.35798
H          2.79281       -2.20040       -6.76515
H          2.45753        0.06192       -8.59305
H          3.82221       -0.81613       -8.42007
H         -1.58777       -1.70814       -8.73934
H         -3.07308       -3.58549       -9.64230
H         -4.47428       -5.02479       -8.08679
H         -3.13835       -5.81616       -6.19857
H         -1.34016       -6.36253       -4.54158
H          0.53876       -6.38534       -2.98734
H         -4.54884       -1.75029       -9.55269
H         -4.91142       -2.39650       -6.56554
H        -11.24571        2.33152      -10.23331
H        -11.15245        3.03616       -7.63818
H         -5.04063       -0.51500       -5.02672
H         -7.87473        0.07851       -3.97084
H         -2.64236        0.76030       -0.34511
H         -3.58135       -1.66923        1.29873
H         -1.98354       -0.74988        1.38758
