110

C         -7.07684       -3.03653        4.32230
S         -5.41215       -3.32070        4.48282
C         -5.34664       -4.27998        3.04883
C         -6.61964       -4.44957        2.50011
C         -7.62681       -3.67859        3.23208
C         -9.07531       -3.59395        2.84836
F         -9.78838       -2.81641        3.70186
F         -9.22727       -3.06211        1.61168
F         -9.66673       -4.81147        2.83832
C         -6.99891       -5.28822        1.30711
F         -5.98417       -6.01010        0.77600
F         -7.97225       -6.17774        1.61974
F         -7.48151       -4.50920        0.30608
C         -4.05385       -4.74429        2.65936
C         -3.67560       -4.74637        1.37561
C         -2.32402       -5.19990        0.98851
N         -1.53174       -5.96464        1.69616
C         -0.44499       -6.10639        0.89408
C         -0.62504       -5.37725       -0.33516
C          0.59055       -5.52301       -1.16866
O          0.83767       -5.06796       -2.26096
C          1.44710       -6.39343       -0.32478
C          0.74411       -6.70993        0.89166
N          1.50905       -7.50936        1.67410
C          2.59751       -7.64849        0.96888
C          2.64990       -6.95194       -0.33394
C         -1.81517       -4.79140       -0.35889
C         -2.46517       -3.96182       -1.32146
C         -2.63703       -4.31938       -2.60122
C         -3.27235       -3.46402       -3.58882
C         -2.51891       -3.11294       -4.65939
C         -3.05116       -2.22712       -5.67440
C         -2.49169       -1.68901       -6.79230
C         -1.08965       -1.77387       -7.39285
C          0.08014       -2.06046       -6.40632
N          0.26559       -1.04865       -5.36189
C         -1.08094       -2.82637       -8.53488
N          0.22681       -2.98313       -9.17703
C         -3.57228       -0.87851       -7.38228
C         -3.60228       -0.08934       -8.46879
C         -4.84220        0.72361       -8.86027
C         -6.05322        0.45566       -7.97412
C         -6.02422       -0.34632       -6.89612
C         -4.78098       -0.99033       -6.56815
C         -4.45958       -1.78332       -5.53775
C         -5.24671       -2.20165       -4.40128
C         -4.66560       -2.99005       -3.47278
C         -4.58486        2.21627       -8.91828
C         -3.46885        2.85564       -8.53366
C         -3.33762        4.32241       -8.68631
N         -4.27129        5.14666       -9.09286
C         -3.65462        6.35739       -9.05953
C         -2.29236        6.21573       -8.61496
C         -1.65622        7.55359       -8.55580
O         -0.53342        7.85351       -8.21800
C         -2.75190        8.43885       -9.01618
C         -3.91729        7.63831       -9.29989
N         -4.93426        8.43418       -9.71950
C         -4.40201        9.62493       -9.68823
C         -2.99554        9.72288       -9.24138
C         -2.01209        4.94395       -8.36819
C         -0.83285        4.31093       -7.87691
C          0.35217        4.31848       -8.51199
C          1.51109        3.68394       -7.95903
S          1.75574        3.71681       -6.26852
C          3.22300        2.83661       -6.30265
C          3.54994        2.50699       -7.61841
C          2.57968        3.05422       -8.58968
C          2.75896        2.90128      -10.07847
F          1.82489        3.55898      -10.81001
F          3.96425        3.37484      -10.47972
F          2.69496        1.60161      -10.45757
C          4.75473        1.71464       -8.06248
F          5.43827        1.13176       -7.04796
F          4.39927        0.71185       -8.90389
F          5.63864        2.49486       -8.73077
C          3.92490        2.55668       -5.08236
C          3.49296        2.90349       -3.86034
H         -7.58781       -2.40877        5.04252
H         -3.34339       -5.03189        3.43505
H         -4.32730       -4.41618        0.57691
H          3.46407       -8.24782        1.28513
H          3.44439       -6.91895       -1.05169
H         -2.83599       -3.00231       -0.96637
H         -2.25383       -5.26825       -2.97430
H         -1.51120       -3.48494       -4.74054
H         -0.86118       -0.79438       -7.83707
H          1.02982       -2.11559       -6.94965
H         -0.02645       -3.04733       -5.95140
H          0.80834       -0.27374       -5.73800
H         -0.63498       -0.66644       -5.07848
H         -1.80603       -2.55128       -9.30961
H         -1.38717       -3.80202       -8.13979
H          0.43721       -2.17581       -9.76200
H          0.21525       -3.79432       -9.79420
H         -2.73138        0.00981       -9.10710
H         -5.11474        0.40443       -9.87496
H         -6.98794        0.94085       -8.24527
H         -6.90847       -0.52235       -6.29550
H         -6.27188       -1.87250       -4.29749
H         -5.23323       -3.30723       -2.60400
H         -5.40666        2.80772       -9.32505
H         -2.62738        2.31775       -8.11677
H         -4.93494       10.54435       -9.97325
H         -2.38070       10.59404       -9.13738
H         -0.96599        3.79577       -6.92724
H          0.44186        4.80911       -9.47919
H          4.87817        2.03705       -5.13169
H          2.56192        3.42731       -3.66944
H          4.08435        2.66458       -2.98170
