134

C         -0.99295        0.24922       -4.47530
C         -0.21558       -0.41085       -3.58170
C          0.75781       -1.36764       -4.02226
N          1.56094       -2.11961       -4.39813
C         -0.50436       -0.39607       -2.18296
N         -0.68218       -0.45702       -1.03922
C         -1.09560       -0.31604       -5.83236
C         -2.42584       -0.71878       -5.97908
C         -2.76840       -1.66132       -6.93295
C         -1.74596       -2.18872       -7.76112
C         -0.41321       -1.68934       -7.66166
C         -0.10625       -0.70149       -6.72487
C          0.61173       -2.24671       -8.44069
C          0.34348       -3.29171       -9.32012
C         -0.95476       -3.77870       -9.43778
C         -1.98981       -3.23196       -8.66881
C         -3.26125       -0.05799       -4.92054
O         -4.45314       -0.19153       -4.75170
C         -2.29549        0.80046       -4.11801
C         -2.62399        1.85728       -3.34906
C         -1.67426        2.88850       -2.83089
C         -1.44338        3.19640       -1.47402
C         -2.28096        2.63950       -0.34417
O         -2.91925        1.60690       -0.51823
C         -2.29711        3.30784        0.98098
C         -2.25206        2.55452        2.14485
S         -2.13749        3.49901        3.55978
C         -2.32275        4.94136        2.66875
C         -2.45286        4.72360        1.30724
C         -2.81817        5.77316        0.35256
O         -3.82192        5.65637       -0.34367
C         -1.86787        6.88943        0.07507
C         -1.01663        7.45787        1.02904
C          0.02973        8.29370        0.62699
C          0.21143        8.58702       -0.72133
C         -0.70545        8.12086       -1.65773
C         -1.74614        7.28118       -1.26396
C         -0.39295        4.08622       -1.18162
C          0.20098        4.88692       -2.17922
C         -0.21410        4.81344       -3.50665
C         -1.04898        3.71456       -3.81494
C          0.02975        5.94271       -4.46872
C         -0.94405        6.30730       -5.41320
C         -2.26140        5.75145       -5.85209
N         -0.56939        7.49279       -5.98231
C          0.59957        7.95848       -5.45851
C          1.07745        9.29386       -5.92496
C          1.05516        7.02049       -4.53376
C          2.27919        7.16842       -3.75497
C          3.15836        8.20673       -3.74473
C          4.40453        8.38483       -2.93755
C          5.15404        9.59108       -2.85548
C          4.83258       10.87684       -3.58401
O          3.67277       11.23036       -3.74763
C          5.96612       11.72403       -4.01941
C          7.04439       11.13309       -4.67326
S          8.19663       12.23844       -5.24740
C          7.29368       13.53719       -4.63760
C          6.15512       13.17308       -3.91525
C          5.40743       14.29441       -3.29820
O          5.49113       15.40833       -3.82695
C          4.66094       14.26608       -1.99749
C          4.31317       15.51157       -1.42930
C          3.53605       15.59993       -0.26921
C          3.07770       14.44108        0.34274
C          3.45098       13.20466       -0.17093
C          4.26570       13.12392       -1.30809
C          6.29905        9.64769       -2.02097
C          6.79224        8.50937       -1.38897
C          6.14553        7.29057       -1.55147
C          4.92356        7.26947       -2.25574
C          6.74727        6.11551       -0.90383
C          6.73646        4.83694       -1.31158
C          7.15826        3.66275       -0.53836
C          8.26481        3.50376        0.23058
C          8.61885        2.27345        0.85621
N          8.89255        1.27387        1.37620
C          9.18019        4.56995        0.42228
N          9.90477        5.45900        0.58902
C          6.19807        2.59825       -0.88035
C          5.49488        2.98072       -2.03411
C          5.95912        4.29963       -2.48107
O          5.73823        4.80360       -3.56122
C          4.42910        2.26579       -2.53894
C          4.06471        1.10614       -1.84326
C          4.78831        0.69370       -0.68722
C          5.84508        1.45115       -0.20643
C          4.44168       -0.46236        0.00897
C          3.37358       -1.22443       -0.41256
C          2.65670       -0.82284       -1.52537
C          2.97886        0.33788       -2.23892
H         -3.78655       -2.03559       -6.98543
H          0.91882       -0.35484       -6.61038
H          1.63987       -1.90133       -8.33933
H          1.15102       -3.73388       -9.89928
H         -1.16017       -4.59852      -10.12194
H         -2.98825       -3.65155       -8.76910
H         -3.67573        2.06619       -3.15145
H         -2.24964        1.47460        2.22502
H         -2.38622        5.87311        3.21403
H         -1.13086        7.26659        2.08857
H          0.71541        8.70113        1.36577
H          1.06280        9.17846       -1.04993
H         -0.57792        8.35907       -2.70984
H         -2.40236        6.85994       -2.02524
H         -0.07010        4.24985       -0.15479
H          0.89044        5.65635       -1.84741
H         -1.29876        3.52496       -4.85422
H         -2.98951        5.77675       -5.03669
H         -2.16570        4.73451       -6.23747
H         -2.67904        6.33667       -6.68159
H         -1.12862        8.00127       -6.65549
H          0.38685        9.73775       -6.65172
H          2.05070        9.21108       -6.41674
H          1.14019        9.99650       -5.08762
H          2.48687        6.32263       -3.11501
H          2.98234        9.04371       -4.40658
H          7.20449       10.08123       -4.87286
H          7.65202       14.54530       -4.81538
H          4.64310       16.44101       -1.89394
H          3.27583       16.57362        0.13885
H          2.43575       14.49964        1.21767
H          3.09771       12.29193        0.30291
H          4.54183       12.13843       -1.62633
H          6.83957       10.57440       -1.85912
H          7.70296        8.58723       -0.79860
H          4.38021        6.33311       -2.28823
H          7.22411        6.36517        0.04231
H          3.88392        2.62638       -3.40690
H          6.32941        1.14633        0.71225
H          4.99817       -0.78547        0.88393
H          3.08888       -2.12934        0.11607
H          1.83999       -1.46983       -1.80466
H          2.39774        0.64688       -3.10131
