115

C          6.31873        2.63609       -0.78099
C          7.22993        2.80600        0.20361
C          8.00921        1.72936        0.71213
N          8.64371        0.84636        1.11759
C          7.41251        4.06849        0.83741
N          7.54565        5.11674        1.31732
C          5.94865        1.36397       -1.45884
C          4.64670        1.50345       -1.96486
C          4.02747        0.55562       -2.75928
C          4.77370       -0.56502       -3.13503
C          6.10654       -0.72937       -2.65357
C          6.67897        0.23276       -1.79257
C          6.85112       -1.83359       -3.09489
C          6.30986       -2.74498       -4.00456
C          5.00996       -2.57814       -4.47311
C          4.24232       -1.50011       -4.03365
C          4.15295        2.86961       -1.72822
O          3.01905        3.26807       -1.88043
C          5.36687        3.63792       -1.29376
C          5.61243        4.90946       -1.65370
C          4.78107        5.73320       -2.50592
C          4.51035        5.37309       -3.78430
C          3.72763        6.39459       -4.43877
C          3.33100        6.35764       -5.79603
N          3.02288        6.33599       -6.91578
C          3.49509        7.39770       -3.57667
C          4.13448        7.06118       -2.29895
C          4.12757        7.81969       -1.17927
C          3.41403        9.09573       -0.90161
C          3.83406        9.50555        0.31496
C          4.70770        8.51987        0.89876
C          4.87280        7.50436        0.04168
C          5.26707        8.63601        2.18997
N          5.70526        8.75806        3.26104
C          2.51675        9.91634       -1.67981
C          1.47130       10.60468       -1.17594
C          0.66547       11.45412       -1.99784
S          1.39299       12.29263       -3.32715
C         -0.10413       12.81032       -3.98163
C         -1.12858       12.52644       -3.10446
C         -0.67397       11.80581       -1.92175
C         -1.52472       11.42115       -0.87039
C         -2.86869       11.81326       -1.10679
N         -3.80711       11.61743       -0.01297
O         -3.91652       10.47197        0.43805
O         -4.37441       12.62940        0.41454
C         -3.31769       12.46209       -2.29691
N         -4.74315       12.66035       -2.50043
O         -5.45397       11.65533       -2.44727
O         -5.11799       13.80846       -2.77117
C         -2.46763       12.85643       -3.35892
C         -0.07939       13.35670       -5.28899
C         -0.19979       12.51265       -6.33787
C         -0.13752       13.25874       -7.57408
C         -0.09142       12.66411       -8.85476
N         -0.04694       12.16768       -9.90151
C         -0.03297       14.57004       -7.30260
C          0.00265       14.72268       -5.84380
C          0.14522       15.89771       -5.19907
C         -0.03492       17.25940       -5.74809
C          0.34670       18.11324       -4.77251
C          0.77400       17.37331       -3.60500
C          0.60595       16.05931       -3.82080
C          1.31895       17.97076       -2.44427
N          1.77641       18.46144       -1.49747
C         -0.69064       17.73499       -6.94731
C         -1.83503       18.43800       -6.92134
C         -2.49437       19.03859       -8.06264
C         -1.99032       19.94707       -8.91741
C         -2.69757       20.76790       -9.93343
C         -3.77050       20.40158      -10.67755
C         -4.32810       21.23473      -11.68991
N         -4.78867       21.91640      -12.50824
C         -4.39046       19.12482      -10.54310
N         -4.89842       18.08798      -10.42482
C         -1.89208       22.01669      -10.09434
C         -0.65952       21.82552       -9.45816
C         -0.60698       20.52117       -8.79614
O          0.38480       20.05752       -8.27407
C          0.34171       22.78100       -9.39910
C          0.10277       24.01771       -9.99595
C         -1.14447       24.26198      -10.63723
C         -2.13824       23.25463      -10.67507
C         -1.36162       25.52024      -11.21986
C         -0.37751       26.51119      -11.17417
C          0.83793       26.26470      -10.54168
C          1.07703       25.02405       -9.95418
H          3.02734        0.73555       -3.14406
H          7.71051        0.10891       -1.47410
H          7.87363       -1.98481       -2.75380
H          6.90851       -3.58223       -4.35557
H          4.59481       -3.28255       -5.18998
H          3.23275       -1.38289       -4.42336
H          6.57849        5.36413       -1.44286
H          4.83163        4.46901       -4.28365
H          2.97366        8.29880       -3.83628
H          3.56386       10.42670        0.81239
H          5.46986        6.63605        0.24353
H          2.76109        9.98872       -2.73249
H          1.20472       10.50553       -0.12671
H         -1.21438       10.90865        0.03334
H         -2.83081       13.33803       -4.26004
H         -0.30127       11.43687       -6.28967
H          0.14383       15.34195       -8.03303
H          0.28169       19.19248       -4.81076
H          0.89779       15.27908       -3.13913
H         -0.16258       17.57516       -7.88256
H         -2.35306       18.59075       -5.97440
H         -3.55373       18.78857       -8.08991
H          1.26918       22.56205       -8.87701
H         -3.08926       23.48812      -11.14445
H         -2.30198       25.74320      -11.72022
H         -0.56013       27.47959      -11.63445
H          1.60039       27.03902      -10.50533
H          2.03237       24.85056       -9.46146
