106

C         -4.42227       14.76322       -0.88294
C         -3.84198       15.31697        0.21309
C         -3.10512       16.52819        0.16793
N         -2.49339       17.51816        0.13839
C         -3.88581       14.73770        1.51736
N         -3.90380       14.27862        2.58606
C         -4.37774       15.30166       -2.29016
C         -5.01157       14.38769       -3.14083
C         -5.10383       14.52492       -4.52033
C         -4.53906       15.67757       -5.10247
C         -3.93836       16.62797       -4.26363
C         -3.84685       16.45810       -2.85571
S         -3.35591       17.97599       -5.17775
C         -3.87022       17.29448       -6.63406
C         -4.46967       16.07384       -6.48088
Br        -3.64965       18.12798       -8.29687
C         -5.55912       13.25902       -2.38566
O         -6.22191       12.34767       -2.83905
C         -5.15494       13.47766       -0.96853
C         -5.45415       12.55161       -0.04987
N         -6.05511       11.31323       -0.19665
C         -6.34163       10.41045        0.79029
S         -5.98917       10.72955        2.45927
C         -6.56508        9.23241        2.94567
N         -6.50716        8.90729        4.33171
O         -7.57721        8.60208        4.87165
O         -5.39344        8.93283        4.87086
C         -7.08007        8.47846        1.92269
C         -6.94305        9.15853        0.66412
C         -7.45091        8.61966       -0.56555
C         -6.77302        7.83010       -1.41691
C         -7.40107        7.28100       -2.60243
C         -7.02109        7.47092       -3.88285
C         -5.81530        8.26215       -4.32037
C         -7.82498        6.86839       -5.01511
N         -8.82824        7.82040       -5.45491
C         -8.62249        8.80181       -6.39203
C         -9.46103        9.75628       -6.82527
C         -9.07723       10.67091       -7.86052
S         -7.44943       11.21930       -8.01428
C         -7.74926       12.07446       -9.46870
C         -9.06251       11.88675       -9.87073
C         -9.86410       11.27985       -8.83083
C        -11.36843       11.24367       -8.92726
C        -11.88891       12.14540      -10.06121
C        -11.12059       11.84361      -11.35660
C        -11.75086       12.51837      -12.57202
C         -9.66159       12.29818      -11.19180
C         -6.66320       12.79847      -10.04367
C         -6.85321       13.92828      -10.74361
C         -5.78376       14.73473      -11.28323
C         -4.82440       14.32200      -12.11930
C         -3.61298       15.17233      -12.34482
O         -3.49109       16.36309      -12.15448
C         -2.56095       14.22614      -12.76940
C         -1.24211       14.52350      -13.05332
C         -0.38981       13.45992      -13.37560
C         -0.86754       12.11502      -13.30213
C          0.01252       11.05967      -13.56373
C          1.31822       11.32673      -13.95594
C          1.77775       12.63051      -14.08709
C          0.93115       13.69664      -13.78168
F          2.14155       10.30693      -14.23005
C         -2.21663       11.85331      -13.01279
C         -3.07675       12.92043      -12.82739
C         -4.54993       13.02132      -12.72875
C         -5.41944       12.26362      -13.44514
C         -6.74021       12.72133      -13.72850
N         -7.79104       13.11811      -14.02022
C         -5.02570       11.08044      -14.12487
N         -4.68800       10.10255      -14.66985
H         -5.59364       13.76384       -5.12206
H         -3.36423       17.23895       -2.28044
H         -4.85857       15.48327       -7.30179
H         -5.19554       12.73470        0.98110
H         -6.25161       11.06126       -1.17385
H         -7.52321        7.49944        2.05988
H         -8.48514        8.87234       -0.79762
H         -5.74114        7.54778       -1.22363
H         -8.30646        6.70393       -2.41112
H         -5.07600        8.38988       -3.52496
H         -6.11776        9.25305       -4.67336
H         -5.30201        7.75416       -5.14589
H         -8.32248        5.94600       -4.69436
H         -7.17141        6.57972       -5.84820
H         -9.69950        7.84366       -4.93571
H         -7.62197        8.72575       -6.81290
H        -10.47656        9.79864       -6.44517
H        -11.80436       11.58501       -7.98071
H        -11.70106       10.21371       -9.09752
H        -11.75000       13.20243       -9.79072
H        -12.96471       11.99049      -10.19398
H        -11.14255       10.75866      -11.52783
H        -11.71230       13.60987      -12.49351
H        -12.79813       12.22080      -12.68304
H        -11.22182       12.22747      -13.48668
H         -9.62058       13.38627      -11.28988
H         -9.06500       11.85779      -11.99811
H         -5.65352       12.45480       -9.82604
H         -7.84176       14.35617      -10.87742
H         -5.77370       15.76460      -10.92261
H         -0.90182       15.55519      -13.04170
H         -0.30702       10.02349      -13.49171
H          2.79290       12.80894      -14.42692
H          1.30508       14.71330      -13.88673
H         -2.57195       10.82702      -12.97575
