86

C          8.62156       -5.19685       -9.61692
C          8.67130       -4.79287       -8.34527
C          9.27198       -3.57073       -7.88799
C          9.23410       -3.42542       -6.55568
C          8.60389       -4.53563       -5.85574
S          8.01054       -5.72013       -7.02856
C          8.48151       -4.66090       -4.51951
C          8.95412       -3.71653       -3.52162
C          8.63930       -4.04897       -2.26391
C          7.88413       -5.28097       -2.15419
S          7.71692       -6.02840       -3.72255
C          7.39879       -5.74575       -0.99050
C          6.60079       -6.95141       -0.71811
C          5.67112       -7.56051       -1.59662
C          4.92030       -8.72665       -1.28192
C          4.99914       -9.36403       -0.03305
C          5.86484       -8.75514        0.90417
C          6.66200       -7.55767        0.56329
N          7.36680       -7.20852        1.66181
N          7.02661       -8.15787        2.54158
N          6.12424       -9.08033        2.18550
C          7.56195       -8.15564        3.88153
C          4.25511      -10.57668        0.30579
C          4.71383      -11.82302        0.11349
C          4.01991      -13.02536        0.51199
C          4.76647      -14.13636        0.41442
C          6.11253      -13.89636       -0.08289
S          6.25979      -12.20930       -0.59185
C          7.14424      -14.76338       -0.10377
C          7.17015      -16.13088        0.38393
C          8.40669      -16.65267        0.47190
C          9.45368      -15.72934        0.08103
S          8.74834      -14.32517       -0.67856
C         10.76718      -15.91076        0.30983
C         11.84178      -14.92219        0.11366
C         11.71856      -13.55093        0.41146
C         12.76823      -12.61406        0.28259
C         14.06126      -12.92901       -0.17930
C         14.26084      -14.31672       -0.38895
C         13.15902      -15.30706       -0.24120
N         13.67069      -16.53014       -0.48276
N         14.95280      -16.26066       -0.76287
N         15.38021      -14.99163       -0.71702
C         15.87739      -17.32363       -1.07552
C         15.16470      -11.96434       -0.32137
C         15.06527      -10.67208       -0.68422
C         16.15597       -9.71903       -0.67286
C         15.74450       -8.43986       -0.73646
C         14.29534       -8.30776       -0.76842
S         13.59233       -9.86230       -1.16588
C         13.57214       -7.22625       -0.41924
C         14.09471       -5.91844       -0.07035
C         13.20093       -5.12116        0.53270
C         11.91486       -5.74639        0.71031
S         11.82258       -7.26109       -0.14035
C         10.91846       -5.27101        1.46164
H          9.05516       -4.60650      -10.41674
H          8.15459       -6.13698       -9.89458
H          9.71243       -2.84928       -8.56122
H          9.64128       -2.56337       -6.05033
H          9.50587       -2.82287       -3.77038
H          8.91174       -3.45776       -1.39908
H          7.62389       -5.17637       -0.08867
H          5.49250       -7.12751       -2.58043
H          4.27052       -9.13575       -2.05212
H          8.07257       -9.10798        4.05163
H          6.73390       -8.03575        4.57878
H          8.26765       -7.32584        3.99140
H          3.29839      -10.40334        0.78663
H          3.00320      -13.00899        0.88026
H          4.40893      -15.11500        0.69896
H          6.28001      -16.66586        0.68291
H          8.61975      -17.64302        0.85039
H         11.10943      -16.84923        0.74084
H         10.77081      -13.15543        0.77579
H         12.52652      -11.59333        0.57500
H         16.60937      -17.39029       -0.26648
H         16.37026      -17.08538       -2.02114
H         15.33254      -18.26657       -1.16688
H         16.14130      -12.36653       -0.05654
H         17.18961      -10.01689       -0.56330
H         16.41505       -7.59526       -0.67780
H         15.11213       -5.61999       -0.27565
H         13.41389       -4.11877        0.87472
H         11.01271       -4.33883        2.00668
H          9.98884       -5.82207        1.57984
