104

C        -11.59646       -7.17911        1.18946
S        -10.10454       -7.41813        1.99918
C         -9.23726       -6.34365        0.93643
C        -10.11162       -5.85583       -0.01884
C        -11.43424       -6.32963        0.12997
C        -12.36699       -5.85520       -0.85032
O        -13.54985       -6.13750       -0.93424
S        -11.51470       -4.77129       -1.95194
C         -9.94832       -4.98359       -1.15389
O         -8.92502       -4.43930       -1.53860
C         -7.83876       -6.16672        1.16218
C         -7.20986       -5.01901        0.86864
C         -5.74054       -4.92631        0.99459
N         -5.00151       -5.59287        1.84688
C         -3.74244       -5.18353        1.54954
C         -3.75919       -4.22846        0.47104
C         -2.37072       -3.81386        0.15940
O         -1.96860       -3.04144       -0.67916
C         -1.58560       -4.60923        1.13281
C         -2.48216       -5.40444        1.93120
N         -1.78296       -6.14814        2.82022
C         -0.54627       -5.81294        2.56648
C         -0.32458       -4.82215        1.48825
C         -5.00464       -4.00344        0.06748
C         -5.52962       -3.17103       -0.96613
C         -5.20902       -3.30259       -2.26255
C         -5.77964       -2.49617       -3.34041
C         -5.02313       -2.28864       -4.44411
C         -5.55077       -1.56250       -5.58680
C         -4.99834       -1.24004       -6.78460
C         -3.61089       -1.49966       -7.34628
C         -2.61715       -0.36703       -6.97832
N         -2.43423       -0.16642       -5.54290
C         -3.00101       -2.88522       -7.00368
N         -3.79224       -3.99730       -7.54139
C         -6.03210       -0.43445       -7.46166
C         -6.06473        0.15821       -8.66544
C         -7.17850        1.13510       -9.05374
C         -8.37958        1.10756       -8.11433
C         -8.38628        0.43067       -6.95216
C         -7.19792       -0.29148       -6.58455
C         -6.91275       -0.99424       -5.48219
C         -7.70840       -1.25406       -4.31099
C         -7.16378       -1.98399       -3.31511
C         -6.63717        2.55022       -9.15698
C         -5.60818        3.05794       -8.45170
C         -5.12574        4.43054       -8.72352
N         -5.19711        5.02381       -9.89127
C         -4.56147        6.19992       -9.67800
C         -4.09519        6.29297       -8.32065
C         -3.34782        7.56166       -8.14380
O         -2.77231        7.98382       -7.16750
C         -3.48772        8.18946       -9.47990
C         -4.22749        7.30456      -10.34251
N         -4.36680        7.85805      -11.57197
C         -3.75815        9.00595      -11.44194
C         -3.15396        9.29941      -10.12332
C         -4.45270        5.21695       -7.63452
C         -4.17017        4.82275       -6.29313
C         -4.46578        5.49193       -5.16950
C         -4.13274        5.02534       -3.85228
S         -4.64989        6.00743       -2.50845
C         -3.94508        4.98652       -1.30301
C         -3.38866        3.88827       -1.91902
C         -3.46582        3.92226       -3.34196
C         -2.82001        2.78603       -3.95275
O         -2.64578        2.55078       -5.13292
S         -2.21891        1.69709       -2.70867
C         -2.74442        2.71447       -1.38757
O         -2.56778        2.41095       -0.21623
C         -4.05374        5.38445        0.06134
C         -3.13579        5.08221        0.98706
H        -12.49908       -7.67767        1.52072
H         -7.27337       -7.00141        1.57735
H         -7.72208       -4.14801        0.48542
H          0.32329       -6.22184        3.10044
H          0.59831       -4.42754        1.11763
H         -6.23974       -2.41159       -0.64919
H         -4.49467       -4.06912       -2.56611
H         -4.00230       -2.63603       -4.45888
H         -3.68372       -1.48164       -8.44183
H         -2.94665        0.57905       -7.42523
H         -1.63130       -0.58568       -7.40370
H         -3.31511        0.19060       -5.16342
H         -1.80248        0.63249       -5.41872
H         -2.86482       -3.02966       -5.93277
H         -1.98993       -2.95871       -7.41837
H         -4.75106       -3.92768       -7.19722
H         -3.42463       -4.87399       -7.17460
H         -5.26456        0.02549       -9.38599
H         -7.54245        0.83396      -10.04502
H         -9.26981        1.65582       -8.41493
H         -9.25351        0.41772       -6.30399
H         -8.72794       -0.90377       -4.24731
H         -7.76489       -2.22720       -2.44721
H         -7.14094        3.18669       -9.88374
H         -5.08391        2.47671       -7.70175
H         -3.67341        9.75092      -12.24420
H         -2.61534       10.17038       -9.80870
H         -3.65318        3.88192       -6.28740
H         -4.99904        6.44039       -5.25490
H         -4.90681        5.98809        0.36492
H         -2.23254        4.51832        0.78401
H         -3.27095        5.40935        2.01304
