136

C          0.32331       -5.22859       -9.09863
C          1.69470       -4.91937       -9.07834
C          2.54217       -5.42538       -8.08213
C          2.05576       -6.31879       -7.13496
C          0.70695       -6.63422       -7.17005
C         -0.18810       -6.05017       -8.10256
C         -1.59050       -6.46153       -7.70288
C         -2.66159       -6.57539       -8.51436
C         -2.59437       -6.26166       -9.90292
N         -2.51797       -6.02862      -11.04020
C         -3.87779       -7.16359       -8.05870
N         -4.86715       -7.64220       -7.68611
C         -1.44614       -7.00255       -6.31119
C         -0.07621       -7.54141       -6.30875
C          0.30301       -8.82194       -6.02970
C         -0.66073       -9.79485       -5.64876
N         -1.43702      -10.62355       -5.43178
C          1.60175       -9.30652       -6.35628
N          2.65937       -9.68110       -6.65316
C         -2.22400       -6.75053       -5.22100
C         -1.83917       -7.03026       -3.81101
C         -0.52850       -6.87350       -3.31436
C         -0.13484       -7.36183       -2.06385
C         -1.00365       -8.13862       -1.30252
C         -2.29289       -8.35521       -1.80677
C         -2.74501       -7.61479       -2.90545
N         -4.12060       -7.79164       -2.84932
C         -4.27363       -9.15824       -2.56231
C         -3.21733       -9.43840       -1.68717
C         -3.14381      -10.70254       -1.06757
C         -4.06193      -11.69016       -1.43307
C         -5.07876      -11.40964       -2.34506
C         -5.24111      -10.12467       -2.88815
C         -5.16697       -6.85462       -2.90910
C         -5.28798       -5.55523       -2.55865
C         -4.46368       -4.51372       -1.90941
C         -4.14940       -3.41786       -2.65812
C         -3.47252       -2.25586       -2.08056
C         -3.08106       -1.07629       -2.64304
C         -3.23628       -0.57369       -4.07261
C         -4.55498        0.24402       -4.15908
N         -4.86413        0.76064       -5.49576
C         -2.00620        0.23903       -4.56776
N         -2.03844        0.73187       -5.94685
C         -2.62530       -0.24539       -1.52049
C         -2.14663        1.01164       -1.47635
C         -1.85609        1.78639       -0.21718
C         -2.16682        0.96298        1.03026
C         -2.55673       -0.33418        1.00999
C         -2.80656       -0.97680       -0.26476
C         -3.27239       -2.19887       -0.60723
C         -3.66699       -3.35279        0.18217
C         -4.21100       -4.43376       -0.43537
C         -2.59609        3.12908       -0.26685
C         -2.01437        4.35048       -0.32163
C         -2.76513        5.60169       -0.10616
C         -2.92922        6.04262        1.22645
C         -3.75133        7.11352        1.55895
C         -4.48784        7.74838        0.56656
C         -4.31624        7.37084       -0.78368
C         -3.39568        6.35541       -1.12851
N         -3.26364        6.44559       -2.52908
C         -4.45010        7.02080       -3.01074
C         -5.02618        7.73127       -1.96359
C         -6.16360        8.53162       -2.21452
C         -6.74560        8.52351       -3.48609
C         -6.20985        7.73674       -4.49851
C         -5.05174        6.98467       -4.28391
C         -2.13190        6.09705       -3.31650
C         -1.82278        6.63362       -4.51779
C         -0.79923        6.16794       -5.43852
C          0.28413        6.73921       -6.01561
C          1.11396        6.07333       -7.11507
C          0.84115        4.96202       -7.85557
C         -0.37832        4.24935       -7.80482
N         -1.38196        3.64396       -7.75608
C          1.78056        4.38592       -8.76031
N          2.53870        3.89681       -9.49071
C          2.36160        6.91008       -7.27745
C          2.38754        7.89433       -6.27296
C          3.52030        8.69259       -6.08530
C          4.51943        8.69739       -7.05267
C          4.41587        7.85494       -8.15468
C          3.35861        6.94096       -8.25449
C          1.01262        8.01082       -5.67590
C          0.54721        9.21865       -5.26601
C          1.33211       10.41513       -5.27134
N          1.94818       11.39940       -5.30146
C         -0.81312        9.49384       -4.99109
N         -1.90448        9.83247       -4.80265
H         -0.28626       -4.79952       -9.88830
H          2.11541       -4.26554       -9.84129
H          3.59008       -5.13333       -8.05235
H          2.72521       -6.74346       -6.39485
H         -3.19028       -6.26162       -5.33146
H          0.23147       -6.38800       -3.92110
H          0.89015       -7.23046       -1.72734
H         -0.66055       -8.65339       -0.41086
H         -2.31485      -10.94664       -0.40984
H         -3.94884      -12.69687       -1.03577
H         -5.75200      -12.21093       -2.64547
H         -6.04211       -9.92200       -3.59138
H         -6.09207       -7.33037       -3.23572
H         -6.29380       -5.15171       -2.72622
H         -4.47728       -3.34837       -3.68831
H         -3.33282       -1.44668       -4.73383
H         -4.51111        1.09940       -3.47490
H         -5.39450       -0.38048       -3.82797
H         -4.25542        0.30417       -6.18235
H         -5.81476        0.50382       -5.75587
H         -1.08152       -0.32120       -4.39544
H         -1.93255        1.16720       -4.02233
H         -2.76633        1.46406       -5.97500
H         -1.18826        1.27770       -6.10563
H         -1.95333        1.61670       -2.33838
H         -0.77633        1.99085       -0.20176
H         -2.00924        1.45920        1.98327
H         -2.72033       -0.88765        1.92701
H         -3.56097       -3.31055        1.26224
H         -4.57992       -5.25592        0.17703
H         -3.68514        3.06111       -0.26285
H         -0.93404        4.45791       -0.32501
H         -2.41238        5.52538        2.03326
H         -3.86773        7.41883        2.59626
H         -5.20951        8.51715        0.83477
H         -6.62330        9.10648       -1.41527
H         -7.64060        9.11154       -3.67404
H         -6.69418        7.70547       -5.47169
H         -4.64821        6.36800       -5.08063
H         -1.47086        5.37218       -2.85925
H         -2.48839        7.37763       -4.95545
H         -1.10907        5.17344       -5.74256
H          3.62622        9.37533       -5.24811
H          5.34551        9.40134       -6.97372
H          5.16365        7.91159       -8.94419
H          3.33899        6.32431       -9.14514
