122

C          0.44309        0.57869       -3.71865
C          1.06728       -0.60434       -3.63899
C          1.91217       -1.17221       -4.75147
C          3.08171       -0.32071       -5.12412
C          4.20571       -0.74405       -4.53536
C          3.96294       -1.95934       -3.70665
C          2.55118       -2.40997       -4.10984
C          1.49624       -2.88470       -3.07658
C          1.97247       -3.64949       -1.83740
C          2.30457       -2.58498       -0.83506
C          3.05020       -2.88603        0.39225
C          3.81080       -4.06708        0.69306
C          4.35185       -5.34028        0.05879
S          3.47771       -6.42263       -1.00215
C          4.85211       -7.50517       -1.29385
C          4.98708       -8.36496       -2.60759
C          5.83383       -9.44159       -2.90667
C          6.97696      -10.06794       -2.33840
C          8.25481       -9.70867       -2.57540
C          9.43099      -10.40928       -1.92312
C          9.63462      -11.84322       -2.29277
C         10.71685      -12.03431       -3.04437
C         11.39115      -10.74474       -3.38656
C         10.69842       -9.72539       -2.46589
C         10.22824       -8.36783       -3.02823
C         10.91475       -7.89661       -4.31379
C          9.97321       -8.36471       -5.37841
C          8.79767       -8.75306       -4.86864
C          8.73863       -8.54118       -3.38699
S          5.15164      -10.35902       -4.21005
C          4.09404       -9.10936       -4.68716
C          3.20983       -9.08575       -5.78953
C          3.13850      -10.22283       -6.79434
C          2.12663      -11.28419       -6.40743
C          2.38368       -7.95173       -5.95871
C          1.23959       -7.73773       -6.80962
C          0.77406       -6.44139       -6.77024
S          1.79236       -5.46469       -5.83805
C          2.77301       -6.77251       -5.30874
C          3.89004       -6.76331       -4.43937
C          4.93536       -5.65426       -4.58057
C          5.47079       -4.95477       -3.35425
C          4.27677       -7.99743       -3.85682
C          5.59697       -7.42162       -0.12919
C          6.50583       -8.37878        0.38808
C          6.25931       -9.85405        0.61359
F          5.95971      -10.11038        1.92201
F          5.23246      -10.38803       -0.09548
F          7.35610      -10.62703        0.36535
C          7.53666       -7.77946        1.16669
C          7.58504       -6.40550        1.51000
C          6.57656       -5.48641        1.16458
C          5.55788       -6.01739        0.34679
S          4.04759       -4.02659        2.43260
C          4.10947       -2.31304        2.48004
C          4.76433       -1.48788        3.43168
C          5.64478       -2.07795        4.52302
C          4.83649       -2.42198        5.76793
C          4.59404       -0.08462        3.34032
C          5.20773        0.99672        4.07933
C          4.74257        2.23924        3.72316
S          3.54207        2.12766        2.52866
C          3.59090        0.38979        2.50062
C          2.73364       -0.50179        1.78912
C          1.30165       -0.05174        1.49978
C          0.60112        0.70366        2.64362
C          3.22701       -1.83516        1.51163
C          1.78414       -1.42838       -1.30014
C          0.91701       -1.59729       -2.51842
H          0.56331        1.21329       -4.59274
H         -0.20965        0.93705       -2.92743
H          1.30582       -1.45758       -5.61847
H          3.01721        0.53622       -5.77156
H          5.17467       -0.27864       -4.63977
H          4.11331       -1.75833       -2.64508
H          4.69015       -2.69866       -4.02910
H          2.68497       -3.18143       -4.86671
H          0.72401       -3.46139       -3.60081
H          2.82409       -4.23332       -2.13638
H          1.17530       -4.29423       -1.44973
H          6.79550      -10.99451       -1.79701
H          9.39127      -10.28848       -0.83458
H          8.98931      -12.64348       -1.94986
H         11.06547      -12.99243       -3.40589
H         11.27231      -10.55243       -4.45734
H         12.46224      -10.79359       -3.16597
H         11.38763       -9.52670       -1.63080
H         10.33839       -7.61520       -2.23853
H         11.91962       -8.31006       -4.43564
H         10.98900       -6.80437       -4.34347
H         10.22088       -8.37445       -6.43182
H          7.96539       -9.10941       -5.46058
H          8.17243       -7.63033       -3.15934
H          4.12864      -10.67235       -6.92918
H          2.87779       -9.81628       -7.78009
H          2.38353      -11.74512       -5.45024
H          2.10078      -12.06785       -7.17110
H          1.12060      -10.86121       -6.32227
H          0.77035       -8.50368       -7.40402
H         -0.08126       -6.02634       -7.28614
H          4.57937       -4.89301       -5.28830
H          5.79851       -6.11206       -5.08294
H          4.67271       -4.46300       -2.80891
H          6.19542       -4.18646       -3.64292
H          5.99889       -5.62578       -2.68113
H          8.30545       -8.43167        1.59185
H          8.40431       -6.06485        2.14424
H          6.62171       -4.46722        1.52599
H          6.43493       -1.36938        4.79764
H          6.16793       -2.96619        4.15433
H          4.33611       -1.53763        6.17751
H          5.49242       -2.82814        6.54452
H          4.06657       -3.16962        5.55229
H          5.96661        0.86795        4.84171
H          5.04542        3.19938        4.11467
H          0.70101       -0.94512        1.29906
H          1.27638        0.60496        0.62824
H         -0.45306        0.41808        2.70805
H          0.60851        1.78319        2.44266
H          1.05649        0.53892        3.62579
H          1.90584       -0.45183       -0.87820
H         -0.13826       -1.71503       -2.23458
