118

C          4.13182        0.10745        0.01444
C          4.94835        0.20546        1.07169
C          4.79904       -0.60559        2.24631
S          4.24304       -2.22108        2.13590
C          4.26052       -2.48701        3.82510
C          3.85641       -3.78557        4.35405
S          4.66101       -4.44392        5.70759
C          3.71777       -5.87519        5.75554
C          3.85503       -6.81332        6.83195
C          4.97191       -6.89769        7.57390
C          5.12922       -7.84907        8.61693
S          4.59553       -7.51376       10.19310
C          5.30601       -8.94040       10.88326
N          5.25494       -9.23474       12.24802
C          5.16190       -8.08004       13.16902
S          3.40620       -7.83090       13.51269
C          3.12700       -9.60368       13.59732
C          3.45848      -10.11020       14.94923
S          2.93399       -9.73696       16.49685
C          4.05056      -10.93477       17.12870
C          4.20455      -11.06973       18.53705
C          4.60091      -12.22366       19.09258
C          5.05014      -12.33765       20.51023
C          5.76499      -11.24803       21.04262
C          6.29942      -11.27830       22.32362
C          6.13384      -12.41268       23.10480
C          5.44686      -13.50829       22.59331
C          4.91574      -13.50381       21.29339
O          4.24017      -14.58599       20.76621
C          4.52922      -15.85480       21.36908
N          4.73789      -11.58542       16.19360
C          4.41845      -11.07012       14.97313
C          4.89030      -11.49333       13.61132
C          4.16262      -12.84260       13.30185
C          4.45833      -13.51410       11.97310
C          6.43129      -11.59338       13.55285
C          7.09020      -12.57616       14.52312
C          4.26120      -10.29865       12.68380
C          5.94527       -9.65951        9.87237
C          5.81195       -9.04582        8.56816
C          6.43891       -9.60319        7.32073
C          6.95360      -11.02773        7.51063
C          7.67906      -11.22844        8.85021
C          9.00660      -10.47420        8.94863
F          9.30356       -9.79275        7.82126
F          9.05509       -9.60415        9.97661
F         10.01568      -11.36219        9.13846
C          6.74907      -10.91887       10.03708
C          2.87973       -5.92187        4.65087
C          2.89161       -4.67531        3.89647
C          1.92853       -4.46118        2.75181
C          0.71717       -5.41492        2.82064
O         -0.14354       -5.18932        3.94633
C         -0.74988       -3.90770        3.99311
C          1.24736       -6.85111        2.93172
C          1.97431       -7.07272        4.26881
C          4.76412       -1.36783        4.48537
C          5.12012       -0.30349        3.56701
C          5.72214        0.99470        4.04043
C          6.23524        0.91216        5.48186
C          5.25224        0.21435        6.43482
C          3.96136        0.99417        6.67399
F          3.95593        2.19008        6.04594
F          2.85457        0.32651        6.29192
F          3.82744        1.25516        7.99874
C          4.99196       -1.22592        5.97385
H          4.28521        0.73456       -0.85621
H          3.29229       -0.57894       -0.02637
H          5.74772        0.93434        1.05670
H          3.00936       -7.46695        7.04380
H          5.84150       -6.27800        7.37611
H          5.63532       -7.16562       12.79784
H          5.66502       -8.32735       14.11077
H          2.12370       -9.90247       13.28080
H          4.08163      -10.16458       19.13061
H          4.70436      -13.12639       18.49191
H          5.94779      -10.35437       20.44611
H          6.85189      -10.42657       22.70576
H          6.54895      -12.44975       24.10734
H          5.34258      -14.35692       23.25604
H          5.56442      -16.14681       21.16192
H          3.86660      -16.60428       20.92637
H          4.32742      -15.87815       22.44455
H          3.07627      -12.67956       13.35161
H          4.37452      -13.56776       14.09675
H          4.24930      -12.85862       11.12434
H          3.81799      -14.39684       11.86645
H          5.49671      -13.85597       11.91225
H          6.88637      -10.61287       13.73840
H          6.72439      -11.90175       12.55112
H          7.28465      -12.09850       15.48975
H          8.05933      -12.89790       14.12494
H          6.49214      -13.47344       14.69581
H          3.78449      -10.72566       11.79038
H          7.25932       -8.94360        7.01419
H          5.70917       -9.59858        6.50157
H          7.60890      -11.29637        6.67300
H          6.10199      -11.72000        7.46790
H          7.92654      -12.29692        8.91629
H          7.34671      -10.86119       10.94682
H          6.04093      -11.74815       10.14575
H          2.46101       -4.64651        1.81026
H          1.58931       -3.42230        2.73838
H          0.12252       -5.31728        1.90540
H         -1.35340       -3.85402        4.90333
H         -1.40139       -3.75941        3.12841
H         -0.00523       -3.11062        4.05283
H          1.93082       -7.05341        2.09606
H          0.42421       -7.57066        2.85263
H          2.56362       -7.99475        4.19913
H          1.23330       -7.22070        5.06396
H          4.96950        1.78610        3.95309
H          6.56158        1.27972        3.39472
H          6.47580        1.91634        5.85146
H          7.17974        0.34982        5.49140
H          5.75234        0.14320        7.41102
H          4.15543       -1.65224        6.53776
H          5.88720       -1.81292        6.21993
