92

C          4.49286       -3.21115      -10.81702
S          4.69678       -3.97806       -9.30026
C          5.85127       -5.12839       -9.90236
C          6.01436       -4.88894      -11.24271
C          5.26429       -3.82465      -11.74858
S          5.53518       -3.57919      -13.50983
C          6.64337       -4.97785      -13.31641
N          6.81795       -5.56882      -12.12417
C          6.41106       -6.14095       -9.07392
C          6.63121       -5.97499       -7.75778
C          7.21089       -6.98858       -6.93332
S          6.74737       -7.02928       -5.26321
C          7.71329       -8.41345       -4.88475
C          8.43260       -8.79158       -6.00467
C          8.13779       -7.98520       -7.17567
C          8.76575       -8.18962       -8.41514
C          9.65531       -9.27314       -8.41610
F         10.27668       -9.56695       -9.56834
C          9.94271      -10.05661       -7.27680
F         10.82090      -11.06482       -7.39179
C          9.37032       -9.83809       -6.01731
C          7.64703       -8.92526       -3.55188
C          7.83451      -10.22754       -3.29789
C          7.81556      -10.80651       -1.98200
C          8.45756      -11.94318       -1.64375
C          9.38459      -12.68644       -2.57808
C          8.31136      -12.48624       -0.24670
N          7.75810      -13.81947       -0.29366
C          8.47734      -14.98589       -0.29569
C          7.95676      -16.21435       -0.34523
C          8.76208      -17.40716       -0.47623
C          8.62783      -18.28412       -1.48142
C          9.38381      -19.50299       -1.62813
C          8.98129      -20.26229       -2.65856
C          7.86179      -19.70177       -3.39678
S          7.50384      -18.08395       -2.80124
C          7.12293      -20.31590       -4.33962
C          7.27911      -21.67496       -4.82071
C          6.26389      -22.09599       -5.59136
C          5.23674      -21.09826       -5.79284
S          5.71533      -19.57401       -5.09504
C          4.05419      -21.32068       -6.39025
C          2.98096      -20.35388       -6.55713
C          3.02156      -19.18621       -7.21705
C          1.94358      -18.17070       -6.96819
O          0.83262      -18.35629       -6.51912
C          2.54457      -16.86851       -7.32072
C          1.96495      -15.62015       -7.15768
C          2.72687      -14.48861       -7.48174
C          4.08080      -14.64546       -7.90324
C          4.84468      -13.50346       -8.18336
C          4.27440      -12.23880       -8.08672
C          2.94911      -12.07653       -7.70773
C          2.17861      -13.19786       -7.39588
F          5.01397      -11.15984       -8.37534
C          4.63337      -15.93326       -8.05422
C          3.84459      -17.04990       -7.81495
C          4.06907      -18.51112       -7.99164
C          4.88332      -19.07839       -8.91129
C          4.79077      -20.45678       -9.26066
N          4.69974      -21.57087       -9.57975
C          5.80051      -18.32098       -9.70041
N          6.54070      -17.71049      -10.33748
H          3.82643       -2.37340      -10.95293
H          7.15821       -5.31732      -14.20720
H          6.65601       -7.06804       -9.58025
H          6.35180       -5.04529       -7.26449
H          8.63042       -7.60943       -9.31474
H          9.67285      -10.44939       -5.18296
H          7.44002       -8.23475       -2.73679
H          7.99107      -10.93753       -4.10327
H          7.20622      -10.28565       -1.24655
H          9.93528      -12.00386       -3.23486
H          8.81725      -13.38553       -3.20075
H         10.14905      -13.24933       -2.03283
H          7.62047      -11.86410        0.33508
H          9.26882      -12.46722        0.28508
H          6.81952      -13.89009       -0.68082
H          9.55598      -14.84012       -0.29606
H          6.87719      -16.34616       -0.34158
H          9.49767      -17.57518        0.30585
H         10.18198      -19.77522       -0.95163
H          9.42870      -21.21606       -2.89715
H          8.11579      -22.30394       -4.55156
H          6.19751      -23.09268       -6.00697
H          3.81471      -22.32703       -6.73211
H          2.07511      -20.61339       -6.00647
H          0.94631      -15.53755       -6.78786
H          5.88373      -13.57992       -8.49318
H          2.52434      -11.07878       -7.65672
H          1.14202      -13.05541       -7.09644
H          5.67074      -16.02834       -8.36246
