85

C         -4.81123       -1.34595        9.16215
C         -4.03120       -1.60089        8.08275
C         -2.84029       -2.37716        8.15915
N         -1.86497       -3.00378        8.22184
C         -4.30142       -1.06130        6.79067
N         -4.51081       -0.62671        5.73502
C         -4.55766       -1.77838       10.57603
C         -5.41573       -1.05763       11.41020
C         -5.51483       -1.22798       12.78435
C         -4.67111       -2.18116       13.38390
C         -3.77649       -2.89464       12.57107
C         -3.71217       -2.71686       11.16051
S         -2.81596       -3.97434       13.52242
C         -3.59901       -3.52243       14.94873
C         -4.57037       -2.57816       14.75943
Br        -3.18160       -4.24102       16.62742
C         -6.24134       -0.13290       10.64073
O         -6.93921        0.74043       11.12421
C         -6.01808       -0.48141        9.20828
C         -6.94256       -0.23173        8.26612
C         -8.21622        0.45122        8.46373
C         -9.32016        0.23283        7.72470
C        -10.60298        0.85738        7.92766
C        -11.53457        0.47433        7.03177
C        -11.03706       -0.48417        6.05808
S         -9.37942       -0.92146        6.42653
C        -11.68432       -0.99113        4.99245
C        -13.02759       -0.65957        4.56692
C        -13.37864       -1.24870        3.41681
C        -12.35842       -2.11550        2.86914
S        -10.95897       -2.17313        3.87885
C        -12.50956       -2.79405        1.72722
N        -11.73140       -3.74571        1.08839
C        -11.99990       -4.30732       -0.13228
S        -12.97622       -3.45652       -1.29399
C        -12.75150       -4.62503       -2.47864
N        -13.29858       -4.43227       -3.79656
O        -13.08152       -5.33542       -4.61311
O        -13.92798       -3.39174       -4.02601
C        -12.01380       -5.69517       -2.03427
C        -11.55827       -5.51233       -0.68076
C        -10.70023       -6.49031       -0.06679
C        -10.78832       -6.98706        1.17957
C         -9.86880       -7.97731        1.75075
C         -9.67607       -9.22064        1.23796
O         -8.78925      -10.17560        1.71792
C         -8.14245       -9.98140        2.88369
C         -7.35606      -10.96239        3.43977
S         -6.69520      -10.46185        4.94128
C         -7.44704       -8.92476        4.81899
C         -8.18016       -8.80626        3.66060
S         -9.05750       -7.37579        3.18613
C        -10.34899       -9.72863        0.05467
C        -11.68019       -9.84508       -0.09832
C        -12.28961      -10.31903       -1.28800
S        -14.00936      -10.49644       -1.48282
C        -13.88254      -11.10645       -3.11213
C        -12.57366      -11.12586       -3.44120
C        -11.71958      -10.69017       -2.45356
O        -10.39247      -10.67724       -2.74933
C        -10.43739      -11.16007       -4.03614
N         -9.15503      -11.27400       -4.66260
O         -9.15012      -11.71815       -5.82198
O         -8.16134      -10.92684       -4.01355
C        -11.71998      -11.45624       -4.51253
H         -6.23289       -0.65306       13.36225
H         -3.01652       -3.32724       10.59572
H         -5.18494       -2.17108       15.55394
H         -6.80519       -0.63877        7.26785
H         -8.28250        1.16534        9.27938
H        -10.79481        1.55106        8.73495
H        -12.55041        0.83725        7.04869
H        -13.68452       -0.00035        5.11617
H        -14.34545       -1.12502        2.94957
H        -13.43205       -2.59418        1.18917
H        -10.92425       -4.05973        1.62877
H        -11.78407       -6.55698       -2.65125
H         -9.93087       -6.89743       -0.72446
H        -11.56959       -6.65216        1.85815
H         -7.14311      -11.94841        3.05107
H         -7.30874       -8.19087        5.60112
H         -9.64536      -10.03861       -0.71336
H        -12.33794       -9.56021        0.72041
H        -14.76231      -11.38323       -3.67636
H        -11.96439      -11.84661       -5.49053
