90

C         -4.28608        8.82949        4.00116
C         -3.18926        8.61864        4.76782
C         -2.61690        9.62568        5.60846
N         -2.15455       10.43968        6.29848
C         -2.54285        7.34898        4.85151
N         -1.97020        6.35190        4.92163
C         -5.05553       10.11781        3.94814
C         -6.32004        9.83870        3.43029
C         -7.31772       10.78494        3.24504
C         -7.04323       12.11182        3.63009
C         -5.77356       12.41544        4.14473
C         -4.75321       11.43645        4.28664
S         -5.66868       14.09029        4.56765
C         -7.26353       14.37818        4.09271
C         -7.88992       13.26943        3.59319
Br        -8.09835       16.04881        4.23663
C         -6.45669        8.41646        3.11103
O         -7.51193        7.85493        2.89831
C         -5.08254        7.83325        3.22337
C         -4.74567        6.70628        2.56787
C         -5.60877        5.94462        1.63915
N         -6.38765        4.98700        2.16518
C         -7.07818        4.23832        1.28180
C         -6.99652        4.39288       -0.08458
C         -6.15104        5.38962       -0.53299
N         -5.43081        6.16560        0.31589
C         -6.04893        5.64660       -1.99018
C         -4.95421        6.12230       -2.60793
C         -4.85741        6.37662       -4.04097
C         -3.95882        5.83027       -4.87979
C         -3.82145        6.14628       -6.28710
C         -2.96685        5.34652       -6.94618
C         -2.37851        4.31271       -6.11504
S         -2.80592        4.60327       -4.41838
C         -1.68910        3.23150       -6.52882
C         -1.40690        2.81743       -7.89241
C         -0.98368        1.54503       -7.99306
C         -0.87635        0.86775       -6.71522
S         -1.09934        2.01067       -5.41762
C         -0.71470       -0.45701       -6.55751
C         -0.66449       -1.20560       -5.29505
N         -1.07970       -2.48204       -5.32956
C         -1.02826       -3.14851       -4.15870
C         -0.56578       -2.60236       -2.98167
C         -0.16805       -1.28745       -3.05160
N         -0.20747       -0.58853       -4.19850
C          0.31491       -0.56457       -1.86446
C          0.17898        0.76624       -1.74283
C          0.61772        1.53414       -0.59977
C          0.89404        2.84729       -0.58813
C          0.95910        3.88858       -1.62616
C          1.48514        3.77800       -2.87274
C          1.59392        4.88332       -3.76472
N          1.69665        5.79330       -4.48487
C          2.12246        2.59360       -3.32670
N          2.71412        1.67167       -3.72252
C          0.61722        5.17245       -0.94768
C          0.68008        4.97308        0.43575
C          0.91999        3.54912        0.73945
O          1.02402        3.05726        1.84361
C          0.42675        5.97007        1.37287
C          0.01573        7.23437        0.88787
C         -0.06499        7.43266       -0.49925
C          0.24958        6.41964       -1.43577
S         -0.62014        9.02502       -0.87389
C         -0.85427        9.39006        0.75570
C         -0.41712        8.40553        1.60118
Br        -1.66704       10.97189        1.34335
H         -8.27961       10.49642        2.83086
H         -3.78729       11.75216        4.66586
H         -8.91159       13.25863        3.23272
H         -3.74594        6.29192        2.60159
H         -7.71908        3.47525        1.71756
H         -7.55473        3.75076       -0.75467
H         -6.93171        5.39168       -2.57302
H         -4.05585        6.32935       -2.03012
H         -5.56668        7.10662       -4.42850
H         -4.35159        6.96355       -6.75688
H         -2.73926        5.45077       -7.99863
H         -1.56992        3.45279       -8.75134
H         -0.77189        1.04920       -8.93143
H         -0.65971       -1.09984       -7.43035
H         -1.38871       -4.17299       -4.19417
H         -0.54407       -3.17156       -2.06303
H          0.81331       -1.15506       -1.10317
H         -0.33863        1.31595       -2.52720
H          0.60728        0.99298        0.34836
H          0.47457        5.75672        2.43822
H          0.13712        6.63191       -2.49288
H         -0.45511        8.47320        2.68022
