98

C         -2.00246        0.03929       -2.73479
C         -1.28473       -0.13241       -1.62281
C         -1.02224        0.87884       -0.63532
C         -0.23436        0.45464        0.36266
C          0.20942       -0.92481        0.22005
S         -0.53245       -1.64645       -1.21269
C          1.09650       -1.55890        1.01212
C          1.74570       -1.00374        2.18622
C          2.70875       -1.78224        2.69842
C          2.90111       -3.01766        1.97426
S          1.70037       -3.18866        0.71357
C          3.88874       -3.88729        2.24068
C          4.06169       -5.10368        1.52309
S          3.16302       -6.48061        2.02149
C          3.70859       -7.46526        0.70913
C          4.69194       -6.79494        0.00730
C          4.89002       -5.43764        0.47115
C          5.81009       -4.54867       -0.09754
C          6.53284       -5.13783       -1.15072
F          7.46934       -4.39035       -1.75756
C          6.33938       -6.47353       -1.60773
F          7.10162       -6.91822       -2.62033
C          5.39976       -7.36471       -1.06121
C          3.20163       -8.78426        0.52866
C          1.94406       -9.12683        0.85021
C          1.46232      -10.44401        0.67216
N          2.32617      -11.50392        0.79347
C          1.65883      -12.67389        0.59631
C          0.33784      -12.36604        0.36807
C          0.19107      -10.94752        0.43575
C         -1.05195      -10.13835        0.26378
C         -0.67835      -13.32923        0.14264
C         -0.47439      -14.55798       -0.35888
C         -1.49942      -15.54266       -0.60447
C         -2.79467      -15.37720       -0.31590
C         -3.78113      -16.38621       -0.56113
C         -4.56803      -16.91178        0.39435
C         -4.48614      -16.56074        1.85895
C         -5.62255      -17.91026        0.01411
N         -5.05654      -19.24042        0.07918
C         -5.12937      -20.07600        1.16330
C         -4.59724      -21.30006        1.25142
C         -4.71622      -22.10864        2.44363
C         -4.25938      -23.34973        2.65243
C         -4.75834      -24.08855        3.86204
O         -5.26643      -23.62983        4.86487
C         -4.56310      -25.51709        3.55785
C         -4.94193      -26.58575        4.35586
C         -4.71565      -27.88156        3.87007
C         -4.17702      -28.06001        2.56334
C         -3.97785      -29.35876        2.07945
C         -4.27047      -30.45524        2.88252
C         -4.77370      -30.29212        4.16553
C         -5.00717      -29.00704        4.65702
F         -4.04988      -31.68998        2.41278
C         -3.81912      -26.94520        1.78038
C         -3.95405      -25.66887        2.30599
C         -3.52103      -24.32154        1.83687
C         -2.42472      -24.09329        1.07511
C         -1.80443      -22.81388        0.98720
N         -1.26073      -21.79052        0.91626
C         -1.72406      -25.13156        0.40066
N         -1.16370      -25.98114       -0.16313
H         -2.45115        0.99506       -2.98092
H         -2.15518       -0.77424       -3.43772
H         -1.41722        1.88250       -0.70971
H          0.07129        1.09535        1.17683
H          1.48611       -0.04381        2.60822
H          3.29926       -1.51798        3.56487
H          4.59792       -3.68446        3.03711
H          5.97688       -3.52598        0.21145
H          5.27850       -8.36515       -1.45131
H          3.86742       -9.50643        0.06673
H          1.23458       -8.39412        1.22792
H          3.30930      -11.43848        1.01565
H          2.17846      -13.62056        0.65591
H         -1.90393      -10.74360       -0.05909
H         -0.90155       -9.35823       -0.49058
H         -1.32350       -9.65289        1.20746
H         -1.68200      -13.00844        0.39820
H          0.53045      -14.87314       -0.63233
H         -1.15095      -16.48155       -1.03116
H         -3.17240      -14.46867        0.14421
H         -3.87510      -16.71028       -1.59591
H         -3.70068      -15.83341        2.08788
H         -4.27184      -17.45326        2.45480
H         -5.43350      -16.13236        2.20089
H         -5.96160      -17.72953       -1.01363
H         -6.51057      -17.81105        0.64832
H         -4.25198      -19.39181       -0.52729
H         -5.68956      -19.64985        1.99373
H         -4.10446      -21.70102        0.37377
H         -5.31390      -21.65211        3.23782
H         -5.38894      -26.40683        5.32688
H         -3.57456      -29.53732        1.08604
H         -4.97853      -31.16601        4.77607
H         -5.40223      -28.89389        5.66515
H         -3.42222      -27.11028        0.78263
