91

C        -17.47656       10.69969       -1.35722
S        -15.87541       10.65771       -1.93204
C        -15.20526       10.92492       -0.35212
C        -16.23146       11.02962        0.58096
C        -17.52938       10.90258       -0.00040
C        -16.05390       11.25492        1.99130
N        -15.88925       11.42823        3.12031
C        -13.78009       11.01706       -0.27121
C        -13.11167       11.18518        0.88045
C        -11.69825       11.36209        0.94285
S        -10.85956       12.17549       -0.32429
C         -9.32416       12.05284        0.43772
C         -9.45578       11.45142        1.67612
C        -10.81718       11.04977        1.96258
C        -11.20294       10.41678        3.15599
C        -10.11983       10.20842        4.03071
F        -10.36831        9.60176        5.20243
C         -8.78622       10.60497        3.75223
F         -7.83398       10.34552        4.66239
C         -8.39448       11.25908        2.57499
C         -8.21727       12.57224       -0.28717
C         -7.01043       12.00491       -0.18983
C         -5.85653       12.50285       -0.87669
C         -4.77650       11.76742       -1.21098
C         -4.64790       10.29741       -0.88919
C         -3.59986       12.32384       -1.98101
N         -3.81106       13.72645       -2.28503
C         -2.87029       14.51884       -2.88188
C         -3.03990       15.80629       -3.19822
C         -2.05207       16.57121       -3.91648
C         -1.60264       16.30261       -5.15113
C         -0.64291       17.12179       -5.84318
C         -0.33268       16.66468       -7.06259
C         -0.99634       15.41945       -7.41682
S         -2.10999       14.95254       -6.14347
C         -0.76299       14.69294       -8.52593
C          0.14181       15.06952       -9.59301
C          0.34245       14.10776      -10.50035
C         -0.37450       12.88480      -10.21668
S         -1.46252       13.10617       -8.86566
C         -0.23406       11.70389      -10.84158
C          0.72955       11.42950      -11.89253
C          2.06311       11.52855      -11.77525
C          2.90789       11.63565      -13.00783
O          2.63839       11.27425      -14.13305
C          4.11121       12.38126      -12.58182
C          5.13779       12.82478      -13.39764
C          6.15963       13.58618      -12.81514
C          6.08321       13.93901      -11.43382
C          7.09563       14.72911      -10.87397
C          8.17867       15.12735      -11.64927
C          8.27730       14.76605      -12.98586
C          7.26428       14.00633      -13.57211
F          9.14953       15.86261      -11.09224
C          5.01805       13.47491      -10.63866
C          4.06191       12.64586      -11.20313
C          2.92109       11.88243      -10.63794
C          2.87148       11.34903       -9.39424
C          1.97553       10.28769       -9.07534
N          1.29072        9.37663       -8.83686
C          3.80562       11.68650       -8.37341
N          4.57006       11.98001       -7.55185
H        -18.30567       10.57460       -2.04059
H        -18.45742       10.96264        0.55529
H        -13.23078       10.96383       -1.21043
H        -13.60827       11.20856        1.83861
H        -12.20313       10.10365        3.42254
H         -7.36723       11.56377        2.43896
H         -8.38478       13.39403       -0.98196
H         -6.85979       11.12783        0.42405
H         -5.90973       13.56227       -1.11875
H         -5.10864       10.03340        0.06724
H         -3.59708       10.00344       -0.80434
H         -5.11042        9.69652       -1.67874
H         -3.47121       11.76258       -2.91322
H         -2.69041       12.21198       -1.37833
H         -4.73318       13.92070       -2.66959
H         -1.94824       13.99485       -3.12553
H         -3.94040       16.33489       -2.89626
H         -1.69325       17.44960       -3.38576
H         -0.22197       18.01694       -5.40697
H          0.37687       17.16538       -7.70348
H          0.60513       16.04294       -9.66095
H          0.97576       14.23830      -11.36563
H         -0.86639       10.86102      -10.56135
H          0.28791       11.20206      -12.86374
H          5.13937       12.57366      -14.45502
H          7.06925       15.02809       -9.82942
H          9.14308       15.07601      -13.56275
H          7.35428       13.73145      -14.62141
H          4.97507       13.76075       -9.59108
