111

C         -4.96653        9.47870       -4.51998
C         -3.77593        9.11316       -5.05280
C         -3.09587        9.90021       -6.03511
N         -2.54996       10.53295       -6.83340
C         -3.07133        7.95614       -4.61730
N         -2.51447        7.01004       -4.26235
C         -5.71196       10.74154       -4.79448
C         -6.59920       10.96517       -3.73886
C         -7.49596       12.02547       -3.68807
C         -7.54224       12.89672       -4.79897
C         -6.65900       12.67611       -5.86759
C         -5.72353       11.61009       -5.88001
S         -6.90298       13.83814       -7.12404
C         -8.17539       14.56804       -6.28988
C         -8.41519       14.00696       -5.06456
Br        -9.17088       15.99544       -6.98264
C         -6.55555        9.85137       -2.77763
O         -7.14214        9.82260       -1.71776
C         -5.69168        8.80144       -3.42312
C         -5.80729        7.48799       -3.14940
C         -6.63396        6.90934       -2.13314
C         -6.11752        6.76363       -0.86263
S         -7.26026        6.14453        0.21926
C         -8.45182        6.03110       -1.00263
C         -8.00806        6.43284       -2.25539
C         -8.93926        6.30156       -3.34559
C         -8.47650        6.52510       -4.78399
C         -8.59919        7.96211       -5.26134
C        -10.33428        5.92050       -3.08249
C        -11.32165        5.92742       -4.25286
C        -11.41497        4.59659       -4.99279
C        -10.74451        5.53819       -1.74602
C        -12.00429        5.12603       -1.10924
C        -11.83371        4.72344        0.20045
S        -10.26423        4.98328        0.75674
C         -9.75564        5.56732       -0.76569
C        -13.30905        5.04892       -1.69743
C        -14.48059        5.22724       -1.04824
C        -15.73211        5.11090       -1.70872
S        -15.92176        4.71264       -3.36584
C        -17.64131        4.80190       -3.33967
C        -18.01487        5.13651       -2.06725
C        -16.96423        5.30279       -1.15432
S        -17.59297        5.74021        0.48793
C        -19.19304        5.62312       -0.31606
N        -19.29571        5.31939       -1.61697
C        -18.41175        4.59654       -4.51855
C        -18.01176        3.76525       -5.49549
C        -18.79320        3.51693       -6.68853
C        -18.77048        2.37049       -7.38294
C        -19.64523        2.06208       -8.48962
C        -19.72996        0.74613       -8.74125
C        -18.93930       -0.05972       -7.82760
S        -17.81507        0.97599       -6.95478
C        -19.11629       -1.36124       -7.54075
C        -20.11319       -2.25077       -8.10395
C        -20.27321       -3.38729       -7.40807
C        -19.40167       -3.47916       -6.25644
S        -18.24796       -2.17602       -6.24924
C        -19.48625       -4.41381       -5.29851
C        -18.68537       -4.44020       -4.08486
C        -18.73478       -5.36300       -3.11722
C        -19.52232       -6.58854       -2.96927
C        -19.63930       -7.58607       -3.87617
C        -20.36957       -8.77426       -3.61186
N        -20.98171       -9.73144       -3.40293
C        -18.91064       -7.59840       -5.10435
N        -18.30466       -7.67967       -6.09236
C        -19.79145       -6.73408       -1.51670
C        -18.86768       -5.93787       -0.83047
C        -18.14094       -5.06449       -1.77350
O        -17.29353       -4.24519       -1.49079
C        -18.70064       -5.97510        0.54660
C        -19.52809       -6.85725        1.28044
C        -20.51957       -7.58277        0.59904
C        -20.68636       -7.51733       -0.80379
S        -21.44856       -8.54818        1.68873
C        -20.50431       -8.07976        3.00532
C        -19.53090       -7.17240        2.68264
Br       -20.76694       -8.74216        4.73707
H         -8.17958       12.13398       -2.85007
H         -5.09445       11.47761       -6.75334
H         -9.19337       14.34094       -4.38848
H         -5.25556        6.75361       -3.72908
H         -5.12919        7.01663       -0.50409
H         -9.01722        5.87506       -5.47469
H         -7.43889        6.18717       -4.88974
H         -9.63841        8.23909       -5.45388
H         -8.04097        8.09568       -6.19438
H         -8.22078        8.67166       -4.52892
H        -11.07952        6.71868       -4.96778
H        -12.31019        6.22617       -3.89594
H        -10.52183        4.39836       -5.59313
H        -12.26331        4.61060       -5.68569
H        -11.54332        3.75496       -4.30684
H        -12.56621        4.29994        0.87403
H        -13.32199        4.81274       -2.75302
H        -14.48833        5.47475        0.01156
H        -20.06950        5.80878        0.29211
H        -19.36851        5.10330       -4.57920
H        -17.08818        3.19643       -5.40087
H        -19.48294        4.30528       -6.97906
H        -20.21604        2.81766       -9.00860
H        -20.37730        0.32322       -9.49499
H        -20.69947       -2.00221       -8.97655
H        -21.00111       -4.14716       -7.65645
H        -20.26235       -5.16702       -5.40037
H        -18.05743       -3.56663       -3.90076
H        -17.94254       -5.36574        1.03096
H        -21.47064       -8.09957       -1.27570
H        -18.83304       -6.75555        3.39868
