100

C        -25.54682        8.72400        0.51894
C        -26.72893        9.12330       -0.09856
F        -27.06521       10.41884       -0.08513
C        -27.54423        8.19618       -0.73171
F        -28.66661        8.59441       -1.34602
C        -27.20670        6.84807       -0.74280
C        -26.02863        6.41947       -0.11891
C        -25.16970        7.37467        0.50650
C        -23.94368        6.97137        1.07276
C        -23.57016        5.63748        1.02202
C        -24.45423        4.72345        0.43093
C        -25.67060        5.07239       -0.13082
C        -23.85257        3.39186        0.36148
O        -24.43885        2.37417        0.06037
C        -22.41026        3.59621        0.71594
C        -22.31769        4.91285        1.38562
C        -21.36248        5.33960        2.25243
C        -20.23878        4.53679        2.61692
N        -19.31838        3.90810        2.91952
C        -21.42452        6.60421        2.90844
N        -21.47939        7.63719        3.43236
C        -21.43938        2.78058        0.27744
C        -21.62709        1.57181       -0.51531
C        -20.73845        0.57591       -0.63757
C        -20.95333       -0.63391       -1.39530
C        -19.93602       -1.50655       -1.31905
C        -18.82161       -1.03650       -0.51506
S        -19.19470        0.55030        0.15679
C        -17.64789       -1.65637       -0.29188
C        -17.22847       -2.96207       -0.75617
C        -15.98304       -3.29780       -0.38162
C        -15.30154       -2.27845        0.39573
S        -16.35017       -0.90911        0.62454
C        -14.03009       -2.38616        0.82394
C        -13.28324       -1.41216        1.57423
S        -13.99436       -0.56516        2.89805
C        -12.56934        0.28636        3.33775
C        -11.53911       -0.08959        2.49481
C        -11.94623       -1.05387        1.48825
C        -11.06869       -1.57802        0.52488
C         -9.75795       -1.05823        0.63324
S         -8.53927       -1.57280       -0.57747
C         -9.35485       -0.13239        1.64634
C        -10.22715        0.38941        2.62497
C        -12.56858        1.19271        4.44489
C        -13.36989        1.03453        5.51372
C        -13.22151        1.77211        6.75528
C        -12.11507        1.75251        7.51609
C        -11.95992        2.38469        8.80379
C        -10.76867        2.14795        9.37904
C         -9.88280        1.31676        8.58103
S        -10.66893        0.88518        7.07506
C         -8.65145        0.87300        8.89185
C         -7.93387        1.07335       10.13435
C         -6.78003        0.39227       10.20749
C         -6.47750       -0.36849        9.01569
S         -7.68275       -0.11122        7.78986
C         -5.43435       -1.19704        8.86842
C         -5.14314       -1.95182        7.66123
C         -5.04807       -3.28600        7.57928
C         -4.74222       -4.00493        6.36650
C         -4.62119       -5.32771        6.54467
C         -4.83364       -5.75997        7.91728
S         -5.28506       -4.37928        8.91721
C         -4.68509       -7.01208        8.39133
C         -4.25365       -8.16992        7.62715
C         -4.15074       -9.29384        8.34998
C         -4.50417       -9.11370        9.73387
S         -4.95982       -7.47112       10.07590
C         -4.49440      -10.06811       10.66653
H        -24.92855        9.47953        0.99452
H        -27.86299        6.14947       -1.25524
H        -23.29283        7.73187        1.49283
H        -26.28503        4.31215       -0.60809
H        -20.40050        3.03658        0.46871
H        -22.57145        1.46881       -1.04579
H        -21.85999       -0.81112       -1.95807
H        -19.93863       -2.46206       -1.82356
H        -17.86199       -3.60676       -1.34830
H        -15.51313       -4.23654       -0.64123
H        -13.48262       -3.28922        0.56702
H        -11.34823       -2.29019       -0.23989
H         -8.10271       -0.33593       -0.86227
H         -8.31521        0.19713        1.67634
H         -9.88212        1.07758        3.38628
H        -11.80235        1.96335        4.46169
H        -14.13467        0.26144        5.54904
H        -14.11821        2.28083        7.10007
H        -12.74418        2.97568        9.25591
H        -10.49235        2.54139       10.34626
H         -8.31325        1.68452       10.94035
H         -6.13158        0.39455       11.07201
H         -4.75051       -1.35723        9.69864
H         -5.01016       -1.35164        6.76235
H         -4.61326       -3.51208        5.41226
H         -4.38318       -6.00660        5.73860
H         -4.01827       -8.13021        6.57359
H         -3.83194      -10.24518        7.94825
H         -4.20686      -11.08731       10.43449
H         -4.77734       -9.85486       11.69324
