148

C          5.05045      -10.79973       -5.22574
S          4.56484      -12.03907       -4.14727
C          5.14593      -11.18697       -2.74921
C          5.64973       -9.95300       -3.12660
C          5.59558       -9.74052       -4.54900
C          6.06175       -8.60185       -5.20516
C          6.59150       -7.62944       -4.31577
C          7.07434       -6.33149       -4.92613
C          6.67590       -7.83901       -2.88078
C          7.22615       -6.74754       -1.98843
C          6.20110       -9.02156       -2.23665
C          5.19023      -11.89614       -1.51804
C          4.19333      -12.03880       -0.63198
C          2.83831      -11.46734       -0.58249
C          1.68620      -12.10927       -1.09580
C          1.73480      -13.43682       -1.85145
O          2.59745      -14.26049       -1.57390
C          0.72185      -13.69161       -2.91270
C          0.27890      -12.65432       -3.72448
S         -0.99422      -13.08728       -4.76103
C         -0.94206      -14.69495       -4.21291
C          0.10098      -14.96437       -3.33541
C          0.37795      -16.33716       -2.84256
O          0.89792      -16.53066       -1.74700
C         -0.06264      -17.56103       -3.62634
C         -0.28968      -18.75516       -2.91580
C         -0.78200      -19.90032       -3.55782
C         -1.05841      -19.86940       -4.92146
C         -0.79408      -18.71482       -5.65288
C         -0.26669      -17.57847       -5.01564
C          0.43260      -11.52935       -0.80903
C          0.31866      -10.35297       -0.04809
C          1.45046       -9.72260        0.47679
C          2.70454      -10.27552        0.18522
C          1.27536       -8.54048        1.36614
C          1.00355       -8.76969        2.67681
C          0.63190       -7.65829        3.54708
C          0.21216       -7.64062        4.84079
C          0.04004       -8.81130        5.78778
C          0.95780       -8.66106        7.02826
N          0.93694       -9.82042        7.92753
C         -1.43764       -9.07443        6.17575
N         -2.33473       -9.20257        5.02207
C         -0.17266       -6.24791        5.09769
C         -0.82976       -5.67369        6.12471
C         -1.32997       -4.23049        6.05506
C         -0.73063       -3.43592        4.90723
C         -0.05407       -4.00636        3.88910
C          0.13856       -5.43589        3.91930
C          0.58825       -6.29147        2.98474
C          0.96134       -6.08020        1.60340
C          1.27383       -7.15515        0.84534
C         -1.15180       -3.51196        7.37557
C         -2.16506       -2.90853        8.01779
C         -2.01062       -2.27849        9.33833
C         -2.50022       -2.86444       10.52615
C         -3.16471       -4.23912       10.56886
O         -2.83647       -5.08604        9.74695
C         -4.08088       -4.54676       11.69661
C         -4.89745       -3.57434       12.26198
S         -5.43686       -4.00097       13.81495
C         -4.80055       -5.57556       13.63401
C         -4.30802       -5.83943       12.36230
C         -4.05399       -7.18293       11.78568
O         -4.20897       -7.35724       10.56965
C         -3.65882       -8.40653       12.56851
C         -2.96718       -9.41654       11.87337
C         -2.48946      -10.56136       12.52596
C         -2.69482      -10.72167       13.89159
C         -3.44428       -9.77811       14.58118
C         -3.95067       -8.65278       13.91527
C         -2.27893       -2.16873       11.72570
C         -1.66344       -0.91094       11.74786
C         -1.14731       -0.31971       10.58534
C         -1.33652       -1.02433        9.38560
C         -0.36931        0.94815       10.66987
S          0.67928        1.12822       12.04845
C          1.23014        2.70256       11.62020
C          0.71060        3.04255       10.38522
C         -0.22609        2.06194        9.85261
C         -0.89467        2.24700        8.63041
C         -0.53837        3.44639        7.94554
C         -1.18028        3.70660        6.60045
C          0.39612        4.41034        8.47819
C          0.71573        5.67492        7.71123
C          1.05947        4.22361        9.71456
C          2.11106        3.34420       12.54606
C          2.08589        4.65923       12.79724
H          4.91046      -10.92419       -6.29042
H          6.02088       -8.45878       -6.27767
H          6.88970       -6.30133       -6.00578
H          8.15170       -6.21329       -4.77517
H          6.54190       -5.48408       -4.48249
H          6.43909       -6.01975       -1.76794
H          8.07206       -6.23333       -2.45418
H          7.59610       -7.16088       -1.04421
H          6.25697       -9.16573       -1.16514
H          6.12259      -12.41974       -1.31280
H          4.39179      -12.67996        0.22863
H          0.61833      -11.62666       -3.72697
H         -1.68184      -15.38006       -4.60398
H         -0.08723      -18.80001       -1.84712
H         -0.95495      -20.81001       -2.98776
H         -1.46792      -20.74741       -5.41336
H         -0.99759      -18.69683       -6.71992
H         -0.03314      -16.71674       -5.63514
H         -0.49087      -12.00545       -1.13443
H         -0.67203       -9.95283        0.16480
H          3.59492       -9.80768        0.60549
H          0.97344       -9.77751        3.08616
H          0.38048       -9.71729        5.26749
H          0.69371       -7.77141        7.60986
H          1.99320       -8.52579        6.69178
H          0.03093       -9.87979        8.39089
H          1.61780       -9.67652        8.67288
H         -1.81740       -8.28842        6.83508
H         -1.50639      -10.00905        6.74253
H         -2.29566       -8.34071        4.47597
H         -3.29391       -9.27533        5.35915
H         -1.13294       -6.23840        6.99891
H         -2.40974       -4.29780        5.85335
H         -0.90554       -2.36275        4.89522
H          0.33843       -3.42186        3.07013
H          0.94555       -5.08147        1.18867
H          1.52126       -7.02312       -0.20398
H         -0.15836       -3.54010        7.82171
H         -3.17128       -2.89741        7.60620
H         -5.09014       -2.57320       11.90523
H         -4.94900       -6.20865       14.48492
H         -2.79326       -9.32070       10.80146
H         -1.95277      -11.32399       11.96672
H         -2.29733      -11.58880       14.41143
H         -3.65175       -9.91803       15.64044
H         -4.60869       -8.03199       14.49717
H         -2.55495       -2.59196       12.68867
H         -1.56131       -0.42039       12.71481
H         -0.92866       -0.62223        8.45972
H         -1.61821        1.55462        8.21861
H         -1.76179        2.84427        6.25883
H         -0.41241        3.89672        5.84310
H         -1.85346        4.56708        6.66320
H          1.25274        5.43529        6.78858
H          1.34793        6.35136        8.29780
H         -0.20231        6.22229        7.47494
H          1.78324        4.93936       10.08217
H          2.79700        2.72240       13.11680
H          1.39570        5.34409       12.31634
H          2.76257        5.08531       13.53218
