114

C          3.59729       -6.23895       -0.30681
C          3.05737       -6.85845        0.95209
O          3.30524       -6.51416        2.08969
C          2.09562       -7.90819        0.48709
C          2.12971       -7.96250       -0.92132
C          3.30309       -7.19044       -1.36780
C          4.10547       -7.50950       -2.41194
C          5.42021       -6.97033       -2.53477
N          6.51020       -6.58563       -2.62053
C          3.72600       -8.45578       -3.40338
N          3.40382       -9.21417       -4.22543
C          1.16925       -8.67153       -1.62053
C          0.25756       -9.44015       -0.89656
C          0.30928       -9.51340        0.51141
C          1.23373       -8.71831        1.23743
C          1.25790       -8.81755        2.64314
C          0.41666       -9.70967        3.30983
C         -0.48188      -10.49155        2.59133
C         -0.54583      -10.38251        1.20284
C          3.92297       -4.93152       -0.34956
C          4.02437       -4.06690       -1.54402
C          3.19214       -4.22971       -2.68830
N          2.21451       -5.11716       -2.92831
O          1.77787       -4.89576       -4.21273
N          2.41574       -3.82062       -4.78268
C          3.27957       -3.36683       -3.86504
C          4.15924       -2.27453       -3.91892
C          4.94789       -2.08959       -2.75817
C          4.88425       -2.94710       -1.62071
C          4.21508       -1.40037       -5.09303
C          5.12941       -1.71150       -6.04697
C          5.57469       -0.65170       -6.93952
C          6.67956       -0.62560       -7.73341
C          7.40791       -1.71051       -8.51790
C          6.42882       -2.66202       -9.28757
N          5.51669       -3.44408       -8.45486
C          8.37645       -1.10139       -9.58975
N          9.09092       -2.09998      -10.39658
C          7.17719        0.72710       -7.44740
C          8.41447        1.05558       -7.02803
C          8.68925        2.35382       -6.27336
C          7.50108        3.31975       -6.24123
C          6.26156        2.95896       -6.61426
C          6.09586        1.58162       -6.97353
C          5.13123        0.72566       -6.62128
C          3.91580        0.92335       -5.87768
C          3.47685       -0.12098       -5.14760
C          9.95004        2.96125       -6.79520
C         10.07159        4.15735       -7.40850
C         11.32693        4.70470       -7.88297
C         12.39143        3.91462       -8.38745
N         12.51630        2.58493       -8.52159
O         13.76615        2.36283       -9.05687
N         14.44368        3.54429       -9.28042
C         13.61905        4.52457       -8.88353
C         13.80372        5.92686       -8.89180
C         12.75070        6.67892       -8.32519
C         11.54960        6.09356       -7.87119
C         15.05761        6.48304       -9.38354
C         15.21352        7.64716      -10.02731
C         16.58639        8.24080      -10.04710
O         17.63590        7.63549       -9.98474
C         16.36708        9.70894      -10.04920
C         14.98631        9.97137      -10.18514
C         14.28693        8.69186      -10.45420
C         13.15287        8.53274      -11.17891
C         12.69533        7.24874      -11.60040
N         12.30778        6.21090      -11.94511
C         12.37801        9.63580      -11.63770
N         11.74228       10.54139      -11.98691
C         14.51275       11.26044      -10.01355
C         15.43548       12.28423       -9.77946
C         16.82432       12.03737       -9.71336
C         17.31924       10.71566       -9.83849
C         18.70864       10.49520       -9.74250
C         19.59012       11.55774       -9.55333
C         19.10097       12.85246       -9.43847
C         17.72709       13.09022       -9.51077
H          1.10257       -8.65137       -2.70425
H         -0.48425      -10.01801       -1.44753
H          1.95869       -8.22807        3.23117
H          0.47291       -9.80026        4.39161
H         -1.13077      -11.19249        3.11022
H         -1.25641      -11.00434        0.66135
H          4.02550       -4.39703        0.59584
H          5.64653       -1.24961       -2.73181
H          5.53979       -2.71664       -0.77805
H          5.73761       -2.60613       -5.98477
H          8.00784       -2.30418       -7.81701
H          7.00053       -3.39260       -9.87054
H          5.83636       -2.08147      -10.00654
H          6.04937       -4.02763       -7.81602
H          4.96336       -4.06688       -9.03973
H          9.14452       -0.48808       -9.11320
H          7.81982       -0.44664      -10.27243
H          9.65716       -2.69194       -9.79081
H          9.74624       -1.62022      -11.01552
H          9.21593        0.32363       -7.04634
H          8.88698        2.08312       -5.22269
H          7.66812        4.32173       -5.85915
H          5.41400        3.63002       -6.57000
H          3.38622        1.86539       -5.93484
H          2.55536       -0.04542       -4.57977
H         10.83473        2.34593       -6.63502
H          9.20569        4.79001       -7.55058
H         12.84622        7.75905       -8.21884
H         10.77458        6.75312       -7.47541
H         15.94298        5.90541       -9.10929
H         13.45621       11.50781      -10.03323
H         15.06035       13.29839       -9.64598
H         19.12598        9.49182       -9.82979
H         20.66032       11.37002       -9.49456
H         19.78751       13.68253       -9.29447
H         17.36855       14.11105       -9.41194
