136

C         13.20416       -4.81722       -0.48655
C         14.55556       -4.92534       -0.15271
O         14.87944       -4.37085        1.03906
C         16.16478       -3.98057        1.51606
C         17.44320       -4.59537        0.98239
C         15.35691       -5.67091       -0.99098
C         14.83638       -6.31132       -2.13691
C         15.82202       -7.10335       -2.97434
C         16.15526       -8.45492       -2.35829
C         13.45595       -6.23758       -2.44201
O         13.07162       -7.07900       -3.45334
C         12.10062       -6.69689       -4.41797
C         12.75433       -6.21668       -5.69933
C         12.61848       -5.48367       -1.59507
C         11.14562       -5.35220       -1.71534
C         10.33216       -5.56856       -0.67323
C          8.92696       -5.36399       -0.68742
C          7.87731       -6.02692       -1.50395
N          6.65057       -5.93408       -1.06677
C          6.78608       -5.21364        0.08110
C          8.16402       -4.81688        0.24810
C          8.33970       -4.09299        1.53320
S          9.63629       -3.19926        2.05933
C          7.01923       -4.34430        2.15690
C          6.11896       -4.94718        1.20445
N          4.93585       -5.24488        1.80098
C          5.14330       -4.90153        3.04616
C          6.47486       -4.33226        3.36714
C          7.05805       -4.06278        4.64961
C          8.19873       -4.72597        4.98039
C          8.85898       -4.48976        6.24486
C         10.03082       -4.94066        6.76936
C         11.22488       -5.73551        6.24403
C         11.12428       -6.38190        4.83731
N         10.10285       -7.42472        4.70156
C         12.46890       -4.78189        6.25894
N         13.74992       -5.42012        5.93766
C         10.04903       -4.37908        8.12888
C         10.85369       -4.63206        9.17457
C         10.73368       -3.87304       10.48471
C          9.66490       -2.78669       10.47827
C          8.81636       -2.59437        9.45170
C          8.95893       -3.42795        8.29221
C          8.22606       -3.52481        7.17928
C          7.02733       -2.81573        6.78822
C          6.48091       -3.08441        5.58717
C         12.08771       -3.33644       10.89589
C         12.76067       -2.32307       10.32569
C         14.06518       -1.86929       10.71184
C         14.95330       -1.05245        9.83444
N         16.14866       -0.79021       10.27874
C         16.15718       -1.41422       11.48510
C         14.87019       -2.01809       11.77031
C         14.96411       -2.67286       13.12178
S         13.75575       -3.07255       14.19472
C         16.44707       -2.69387       13.35031
C         17.04940       -1.77285       12.40341
N         18.39150       -1.70600       12.57741
C         18.59780       -2.62077       13.48290
C         17.40820       -3.38295       13.97564
C         17.47816       -4.63602       14.75875
C         18.36202       -4.69807       15.85559
O         19.05239       -3.56109       16.21795
C         19.40043       -3.43853       17.60568
C         20.84812       -3.84598       17.84211
C         18.52759       -5.89568       16.55623
C         17.77616       -7.04912       16.29049
C         17.91014       -8.13443       17.34228
C         17.85602       -9.59823       16.95574
C         16.88644       -7.01351       15.20476
O         16.05771       -8.10624       15.04399
C         16.17951       -8.77990       13.78281
C         15.53184      -10.15186       13.89240
C         16.74828       -5.82148       14.41577
C         15.76205       -5.83113       13.31395
C         16.02400       -5.57344       12.02493
H         12.57512       -4.22221        0.17707
H         16.13921       -4.19238        2.59249
H         16.23088       -2.89044        1.42975
H         17.42530       -5.68690        1.05473
H         18.30276       -4.24149        1.56080
H         17.61867       -4.29891       -0.05633
H         16.39995       -5.84563       -0.78058
H         16.74596       -6.51612       -3.06772
H         15.45763       -7.23252       -3.99837
H         16.56914       -8.34784       -1.34918
H         16.90187       -8.97269       -2.96906
H         15.26616       -9.08931       -2.29064
H         11.41155       -5.93149       -4.09227
H         11.50041       -7.58795       -4.63350
H         11.98870       -5.88321       -6.40808
H         13.33551       -7.01695       -6.16597
H         13.43503       -5.38321       -5.50232
H         10.74604       -4.96122       -2.63462
H         10.74965       -5.85993        0.28688
H          8.17055       -6.58148       -2.40819
H          4.40521       -5.03836        3.85178
H          8.62781       -5.46216        4.31469
H         11.41239       -6.55414        6.95453
H         12.07840       -6.86005        4.58674
H         10.96101       -5.61088        4.07722
H         10.29401       -8.16823        5.37323
H         10.19655       -7.85523        3.78083
H         12.60250       -4.34143        7.25051
H         12.30693       -3.94006        5.57433
H         13.86956       -5.42960        4.92343
H         14.50471       -4.82372        6.28044
H         11.62591       -5.39228        9.11231
H         10.42968       -4.59936       11.25090
H          9.57652       -2.16870       11.36810
H          8.05739       -1.81800        9.47807
H          6.59783       -2.07277        7.44898
H          5.59398       -2.54530        5.26621
H         12.52802       -3.88449       11.72092
H         12.32382       -1.83203        9.45588
H         14.58260       -0.71955        8.85234
H         19.59765       -2.85650       13.87522
H         18.71095       -3.99034       18.25775
H         19.28097       -2.38449       17.87803
H         21.11176       -4.77191       17.32173
H         21.04065       -3.97815       18.91132
H         21.52510       -3.07463       17.46309
H         19.23529       -5.94606       17.37815
H         17.15448       -7.93664       18.11250
H         18.88259       -8.00789       17.84117
H         16.85431       -9.89746       16.64767
H         18.11121      -10.20576       17.83357
H         18.57115       -9.83714       16.16411
H         17.22954       -8.87974       13.48713
H         15.63055       -8.24992       13.00204
H         15.93104      -10.71852       14.73659
H         15.68671      -10.72693       12.97438
H         14.45264      -10.05125       14.05494
H         14.75515       -6.12236       13.61224
H         17.01214       -5.29968       11.66938
H         15.22494       -5.61912       11.28980
