97

C          0.92178       -2.72902      -10.05740
C         -0.29753       -2.55458      -10.61923
C         -0.63904       -3.07687      -11.90095
N         -0.91944       -3.49309      -12.94488
C         -1.35318       -1.88821       -9.93434
N         -2.19218       -1.32422       -9.36470
C          2.04501       -3.53920      -10.61867
C          2.87819       -3.91750       -9.56381
C          4.02325       -4.69079       -9.71796
C          4.38040       -5.08180      -11.02909
C          3.56395       -4.68196      -12.09690
C          2.38875       -3.90808      -11.91415
S          4.18958       -5.24468      -13.60510
C          5.52087       -6.00264      -12.86001
C          5.50524       -5.84505      -11.49435
C          2.38583       -3.35114       -8.29798
O          2.67193       -3.76906       -7.19660
C          1.33773       -2.34053       -8.68926
C          1.01901       -1.23098       -7.99603
C          1.74309       -0.80526       -6.77252
N          3.01165       -1.04706       -6.56155
C          3.22238       -0.54949       -5.32023
C          2.04102        0.11979       -4.83523
C          2.33701        0.67274       -3.48739
O          1.65449        1.38869       -2.78898
C          3.70961        0.16661       -3.22762
C          4.16909       -0.55121       -4.38858
N          5.42008       -1.03713       -4.17695
C          5.67873       -0.64128       -2.96155
C          4.63789        0.15855       -2.27908
C          1.04106        0.00337       -5.70586
C         -0.32474        0.44830       -5.65666
C         -1.31081        0.15190       -4.78233
C         -1.23940       -0.75855       -3.69111
S         -2.13879       -0.59043       -2.22165
C         -0.54273       -1.91956       -3.61295
S          0.33154       -3.00245       -4.76149
C          1.11539       -3.58271       -3.28661
N          0.68683       -3.18141       -2.08729
C         -0.35723       -2.33416       -2.29061
C         -1.36104       -1.97698       -1.42371
C         -1.85882       -2.38792       -0.13440
C         -1.86666       -3.60151        0.46908
C         -1.27272       -4.89681        0.03440
N         -0.19158       -4.95763       -0.67866
C         -0.06692       -6.24406       -1.02291
C         -1.08906       -7.03322       -0.39573
C         -0.91143       -8.43512       -0.89093
O         -1.56271       -9.42829       -0.66010
C          0.24468       -8.32883       -1.81519
C          0.68843       -6.96767       -1.83733
N          1.70909       -6.81549       -2.71867
C          1.86373       -8.02020       -3.18902
C          0.97120       -9.06687       -2.64523
C         -1.82553       -6.26100        0.41149
C         -2.89279       -6.57029        1.32034
C         -3.07935       -7.68547        2.05195
C         -2.27346       -8.89118        2.11037
C         -0.98892       -9.02888        2.47033
C          0.01549       -8.07291        2.93593
C         -0.15736       -7.13752        3.89971
C          0.91982       -6.36296        4.41826
N          1.79194       -5.73299        4.84116
C         -1.39573       -6.97195        4.58102
N         -2.39087       -6.84722        5.17065
C          1.33251       -8.58457        2.47343
C          1.18185       -9.93764        2.15579
C         -0.25016      -10.30944        2.17665
O         -0.70560      -11.41569        1.98014
C          2.25431      -10.77518        1.87149
C          3.55526      -10.21461        1.91541
C          3.68920       -8.83491        2.13032
C          2.58181       -7.98961        2.37482
S          5.34412       -8.34898        2.08756
C          5.88747       -9.95208        1.90353
C          4.84344      -10.84110        1.79633
H          4.63386       -4.95448       -8.85850
H          1.81640       -3.61264      -12.78609
H          6.25496       -6.52654      -13.45756
H          6.27304       -6.25262      -10.84699
H          0.28879       -0.51503       -8.34943
H          6.61443       -0.86738       -2.42814
H          4.65632        0.57901       -1.29444
H         -0.56754        1.16897       -6.43899
H         -2.24837        0.69494       -4.89723
H          1.91419       -4.30423       -3.38840
H         -2.39655       -1.60706        0.40660
H         -2.38722       -3.66545        1.42204
H          2.59941       -8.28700       -3.96168
H          0.92328      -10.10435       -2.90493
H         -3.64134       -5.78586        1.43311
H         -3.98272       -7.74449        2.66322
H         -2.80288       -9.77931        1.75323
H          2.09825      -11.83147        1.67012
H          2.74468       -6.92778        2.52763
H          6.94766      -10.16524        1.87517
H          4.99341      -11.90635        1.66682
