118

C        -20.24935        5.14955       -0.05876
C        -21.36468        5.50213        0.63924
C        -22.42946        6.23769        0.04463
N        -23.29921        6.83224       -0.44550
C        -21.56987        5.08058        1.98802
N        -21.72783        4.74901        3.09263
C        -19.97723        5.40488       -1.51284
C        -19.01332        4.48554       -1.92847
C        -18.43524        4.44593       -3.18817
C        -18.87667        5.39638       -4.12696
C        -19.87902        6.30279       -3.74915
C        -20.44069        6.32982       -2.43980
S        -20.29569        7.33521       -5.07095
C        -19.13934        6.62234       -6.10166
C        -18.44861        5.61153       -5.47919
C        -18.68850        3.57051       -0.83997
O        -18.28693        2.43572       -0.99164
C        -19.17000        4.24277        0.40887
C        -18.55054        4.17654        1.60587
C        -17.36026        3.44155        1.87537
N        -17.04931        2.25138        1.21399
C        -15.78347        1.84219        1.64606
C        -15.40874        2.75496        2.57746
C        -16.36816        3.73742        2.74799
N        -16.13441        4.72045        3.65220
C        -14.86238        4.35507        4.10024
C        -14.40374        3.16565        3.47945
C        -13.17368        2.51281        3.74779
C        -12.07748        3.14142        4.18598
C        -10.84008        2.46419        4.48901
C        -10.33766        2.62001        5.74021
C         -9.00919        2.13256        6.02782
C         -8.23596        2.27185        7.13606
C         -8.64253        2.77347        8.51060
C         -8.45574        1.70305        9.62877
N         -9.27967        0.50327        9.46960
C         -7.94665        4.07828        8.97101
N         -8.16635        5.22226        8.08908
C         -6.89721        1.90717        6.66108
C         -5.67510        2.21515        7.12057
C         -4.41399        1.91719        6.31731
C         -4.64245        1.09481        5.05871
C         -5.86572        0.79160        4.59847
C         -6.98575        1.30956        5.33014
C         -8.25264        1.47599        4.94233
C         -8.87932        1.18682        3.67924
C        -10.11250        1.67958        3.47110
C         -3.40703        1.24736        7.20095
C         -2.08457        1.41158        7.05801
C         -1.22328        0.78526        7.96470
N         -0.78806        1.47212        9.08897
C          0.01453        0.57771        9.81075
C          0.03545       -0.57907        9.08897
C         -0.72028       -0.46157        7.94107
N         -0.81796       -1.51190        7.09503
C         -0.01610       -2.44458        7.76418
C          0.49983       -1.91900        8.97542
C          1.31899       -2.64540        9.88375
C          1.39632       -2.35951       11.19228
C          2.22253       -3.08876       12.11657
C          2.70934       -2.63086       13.27627
C          2.66558       -1.34113       13.98015
C          2.79644       -0.10107       13.44430
C          2.80051        1.08680       14.22989
N          2.78783        2.06213       14.86078
C          3.06859        0.11958       12.05994
N          3.33564        0.36511       10.96149
C          2.77628       -1.66194       15.43527
C          3.18972       -2.99107       15.55522
C          3.23445       -3.64762       14.23954
O          3.57142       -4.79112       14.01596
C          3.46943       -3.61879       16.76119
C          3.32349       -2.85502       17.93876
C          2.87799       -1.53009       17.83490
C          2.58447       -0.91557       16.59058
S          2.75198       -0.79187       19.39038
C          3.29862       -2.19530       20.18538
C          3.55865       -3.21913       19.30648
H        -17.66196        3.72036       -3.42439
H        -21.19681        7.07295       -2.21038
H        -19.01710        6.97379       -7.11756
H        -17.66946        5.03790       -5.96848
H        -18.89753        4.80301        2.42422
H        -17.58817        1.80978        0.47385
H        -15.31802        0.96388        1.22398
H        -16.73057        5.48243        3.93957
H        -14.37803        4.96359        4.85441
H        -13.14317        1.43631        3.59410
H        -12.06859        4.22143        4.32425
H        -10.85210        3.21055        6.49082
H         -9.71937        2.99600        8.48859
H         -8.71477        2.14512       10.59978
H         -7.40525        1.39887        9.69325
H        -10.26756        0.75520        9.46485
H         -9.14623       -0.11275       10.27126
H         -6.87296        3.92791        9.10188
H         -8.32920        4.35351        9.96124
H         -7.75067        5.03029        7.17641
H         -7.67326        6.03233        8.46290
H         -5.53649        2.77150        8.03586
H         -4.01359        2.88952        5.99436
H         -3.77162        0.78126        4.49062
H         -6.01617        0.22380        3.68864
H         -8.35397        0.62633        2.91706
H        -10.60058        1.52622        2.51205
H         -3.79740        0.61136        7.99505
H         -1.66480        2.02115        6.26299
H         -1.01408        2.42327        9.34994
H          0.47354        0.88805       10.73529
H         -1.34159       -1.57427        6.23123
H          0.10505       -3.42773        7.32802
H          1.91558       -3.45568        9.47095
H          0.77820       -1.56289       11.59814
H          2.37209       -4.14045       11.86186
H          3.78566       -4.65782       16.78827
H          2.22712        0.10747       16.58681
H          3.40123       -2.20699       21.26191
H          3.90935       -4.19396       19.62262
