91

C         -4.86840       -3.23252       -3.15999
C         -5.86020       -3.97481       -3.71994
C         -5.68762       -5.32136       -4.14502
N         -5.56400       -6.42060       -4.49829
C         -7.16423       -3.46819       -3.95536
N         -8.24316       -3.06335       -4.15142
C         -3.45129       -3.68385       -2.93871
C         -2.71168       -2.59636       -2.47471
C         -1.36514       -2.64624       -2.12909
C         -0.68810       -3.87031       -2.29848
C         -1.40422       -4.96669       -2.79954
C         -2.78979       -4.89771       -3.11162
S         -0.37455       -6.34538       -2.97729
C          0.96516       -5.50239       -2.39017
C          0.68403       -4.20843       -2.04456
Br         2.67052       -6.26109       -2.23304
C         -3.53009       -1.38386       -2.41830
O         -3.08833       -0.26928       -2.23045
C         -4.93993       -1.81398       -2.70277
C         -5.99358       -1.01661       -2.45461
C         -5.88458        0.28443       -1.89357
O         -5.75920        1.44139       -2.64839
C         -5.94371        0.70374       -0.59296
C         -6.06295        0.19897        0.73751
O         -6.14667       -0.96424        1.08731
N         -6.05854        1.33074        1.52736
C         -5.94275        2.51383        0.81961
O         -5.91065        3.64494        1.26946
C         -5.87426        2.09876       -0.54977
C         -5.75712        2.57655       -1.82910
C         -5.67150        3.90017       -2.34110
C         -5.01465        4.11353       -3.49144
C         -4.88728        5.40283       -4.13556
C         -4.21233        5.64533       -5.28039
C         -3.47887        4.58977       -6.07352
C         -4.06650        7.06253       -5.78504
N         -4.65086        7.19966       -7.10742
C         -4.26704        8.15696       -8.01475
C         -4.73083        8.39828       -9.25028
C         -4.12220        9.37334      -10.09234
S         -3.28894       10.78852       -9.55034
C         -2.91220       11.34423      -11.14415
C         -3.38787       10.40800      -12.02230
C         -4.07727        9.33037      -11.45572
S         -4.67389        8.19827      -12.74138
C         -3.89218        9.36359      -13.85506
N         -3.27038       10.45209      -13.38775
C         -2.17713       12.55469      -11.31888
C         -2.31130       13.37444      -12.37253
C         -1.16854       14.29145      -12.70169
O         -0.33272       14.74717      -11.95027
C         -1.20958       14.43329      -14.17314
C         -0.23291       14.99508      -14.97936
C         -0.37146       14.86811      -16.36929
C         -1.47847       14.14481      -16.90805
C         -1.57090       13.96954      -18.29477
C         -0.60988       14.52083      -19.13413
C          0.45420       15.25202      -18.62476
C          0.57755       15.42108      -17.24460
F         -0.71506       14.34473      -20.45771
C         -2.46297       13.61072      -16.05564
C         -2.34582       13.79068      -14.68668
C         -3.19254       13.37536      -13.54275
C         -4.54312       13.26843      -13.54517
C         -5.29279       13.13628      -12.33898
N         -5.91726       13.05139      -11.36444
C         -5.31454       13.36024      -14.73796
N         -5.93965       13.42400      -15.71476
H         -0.85645       -1.76151       -1.75533
H         -3.26778       -5.79462       -3.48519
H          1.41500       -3.51550       -1.64497
H         -7.01539       -1.32676       -2.62503
H         -6.11689        1.29820        2.53104
H         -6.14939        4.70897       -1.79748
H         -4.52438        3.26723       -3.96624
H         -5.35897        6.23869       -3.61782
H         -3.82754        3.57501       -5.86513
H         -2.40784        4.62899       -5.85014
H         -3.61573        4.72962       -7.14965
H         -2.99950        7.31781       -5.81114
H         -4.54756        7.78011       -5.10987
H         -5.41111        6.57411       -7.35619
H         -3.44090        8.74706       -7.62203
H         -5.55522        7.80675       -9.63995
H         -3.94651        9.16308      -14.91894
H         -1.38057       12.74996      -10.60007
H          0.62627       15.48675      -14.53154
H         -2.38674       13.40684      -18.74072
H          1.18397       15.68076      -19.30450
H          1.42256       15.98869      -16.85928
H         -3.28547       13.04229      -16.47996
