110

C         -5.88514        1.10898       -3.12835
C         -6.66405        0.06114       -3.47094
C         -6.74804       -0.42402       -4.79897
N         -6.82326       -0.80246       -5.89520
C         -7.40403       -0.69684       -2.50141
N         -8.01110       -1.29201       -1.71272
C         -4.93941        1.84967       -4.01968
C         -3.95870        2.43859       -3.21951
C         -2.92763        3.24242       -3.70509
C         -2.87910        3.48071       -5.09992
C         -3.85794        2.88639       -5.91294
C         -4.89902        2.07093       -5.39181
S         -3.61467        3.29160       -7.57624
C         -2.26547        4.23967       -7.21834
C         -1.96635        4.27650       -5.88195
Br        -1.28035        5.15003       -8.52779
C         -4.21250        2.10590       -1.81029
O         -3.36190        2.11683       -0.94393
C         -5.64116        1.60157       -1.75928
C         -6.55924        1.77028       -0.77624
C         -6.30129        2.48152        0.43329
C         -6.74515        2.33522        1.76101
C         -5.71125        2.87355        2.59869
C         -4.72166        3.46997        1.85774
S         -5.37851        3.97185        0.36303
C         -3.56399        3.41922        2.63786
C         -3.94515        3.03122        3.88421
N         -5.29421        2.88775        3.91873
C         -6.14822        2.87582        5.08214
C         -6.03890        4.20798        5.79931
C         -2.92740        2.95941        4.94315
C         -1.64785        3.56527        4.30594
S         -1.89817        3.78707        2.46605
C         -7.78181        1.46277        2.25214
C         -7.62637        0.39303        3.05718
C         -8.66696       -0.53275        3.45691
C         -8.17721       -1.74385        3.78457
C         -6.72443       -1.81410        3.68439
S         -6.09422       -0.18608        3.67456
C         -5.94531       -2.84366        3.29936
C         -6.43023       -4.04013        2.65722
C         -5.59870       -4.44938        1.67886
C         -4.34480       -3.69058        1.57355
S         -4.20556       -2.72651        3.02897
C         -3.52164       -3.74952        0.49463
C         -2.25888       -3.06953        0.19176
C         -1.45934       -3.11288       -0.99345
C         -0.41404       -2.10100       -0.93213
C         -0.23076       -1.63675        0.35369
S         -1.52727       -2.02528        1.38223
C          1.00490       -0.97636        0.38578
C          1.53184       -1.03792       -0.86630
N          0.52753       -1.40316       -1.72362
C          0.23009       -0.71345       -2.97510
C          0.54044        0.79719       -2.96644
C          2.90512       -0.50492       -1.04114
C          3.11645        0.44280        0.17315
S          1.97626       -0.14249        1.54092
C         -1.80331       -3.86974       -2.19052
C         -1.49561       -5.10867       -2.65336
C         -0.61902       -6.24542       -2.27046
C          0.72323       -6.23909       -2.36764
C          1.53830       -7.37032       -1.97769
N          2.17781       -8.27396       -1.66086
C          1.35772       -5.31947       -3.25889
N          1.82472       -4.66246       -4.09755
C         -1.35281       -7.51494       -2.66218
C         -2.35776       -7.15512       -3.56639
C         -2.40336       -5.67950       -3.72255
O         -3.06829       -5.06382       -4.52932
C         -3.23412       -8.07348       -4.15233
C         -3.13560       -9.43769       -3.77172
C         -2.09943       -9.81064       -2.90060
C         -1.17836       -8.86770       -2.35931
S         -2.14411      -11.51321       -2.57975
C         -3.57600      -11.71001       -3.45318
C         -3.98379      -10.56413       -4.08492
Br        -4.52328      -13.32799       -3.52641
H         -2.20580        3.69145       -3.02720
H         -5.63619        1.66501       -6.07493
H         -1.13802        4.84045       -5.46832
H         -7.56884        1.38998       -0.88277
H         -5.83877        2.04745        5.72760
H         -7.18161        2.71163        4.76579
H         -5.10284        4.26979        6.36011
H         -6.85560        4.33708        6.50949
H         -6.04637        5.03939        5.08491
H         -2.76667        1.92558        5.26620
H         -3.20964        3.54651        5.81796
H         -0.77398        2.94214        4.50836
H         -1.47960        4.56410        4.71962
H         -8.78806        1.69174        1.90418
H         -9.71784       -0.27703        3.45342
H         -8.78768       -2.58299        4.08667
H         -7.41374       -4.44779        2.84299
H         -5.84752       -5.24827        0.99831
H         -3.87638       -4.38245       -0.31342
H         -0.83830       -0.83696       -3.17842
H          0.80580       -1.21242       -3.75846
H          0.08953        1.30606       -2.10614
H          0.17631        1.27989       -3.87871
H          1.61407        1.00178       -2.93358
H          3.10066        0.00283       -1.98449
H          3.61293       -1.34007       -0.97465
H          2.82005        1.46470       -0.09166
H          4.15781        0.45305        0.50683
H         -2.55813       -3.33800       -2.77441
H         -4.01846       -7.74085       -4.82726
H         -0.40092       -9.22888       -1.69288
H         -4.87670      -10.50824       -4.69752
