103

C         -6.70011        7.25405       -9.70179
C         -5.53499        6.96049      -10.33186
C         -5.39608        7.04963      -11.74902
N         -5.28998        7.12144      -12.89965
C         -4.35773        6.61545       -9.61886
N         -3.39930        6.31521       -9.02910
C         -7.95569        7.76672      -10.33643
C         -8.68303        8.43450       -9.35370
C         -9.93713        8.99972       -9.54118
C        -10.51741        8.87560      -10.81841
C         -9.78895        8.22688      -11.82948
C         -8.50173        7.66181      -11.60863
S        -10.67803        8.22068      -13.31357
C        -11.99238        9.01313      -12.60932
C        -11.80467        9.30732      -11.28651
Br       -13.55633        9.44573      -13.54536
C         -7.95640        8.42538       -8.08609
O         -8.12631        9.27150       -7.23583
C         -6.91385        7.34714       -8.22872
C         -6.49711        6.47118       -7.28479
C         -6.89499        6.41287       -5.90643
S         -7.14027        7.82994       -4.97330
C         -7.82664        6.99673       -3.65535
C         -7.57948        5.64425       -3.76625
C         -7.03400        5.30020       -5.06601
C         -6.75890        3.85959       -5.41809
C         -6.70254        2.94247       -4.18220
C         -7.89370        3.18477       -3.24305
N         -7.86809        2.24058       -2.11869
C         -7.86003        4.62054       -2.70270
C         -8.52159        7.77100       -2.69043
C         -8.45727        7.55946       -1.37267
C         -9.17575        8.25876       -0.33001
C         -9.97467        9.34691       -0.33899
C        -10.36446       10.22726       -1.49523
C        -10.60091        9.79202        0.96095
N         -9.68931       10.71740        1.58916
C         -9.90456       11.33884        2.78738
C         -9.14602       12.30628        3.30816
C         -9.43369       12.95584        4.57436
C         -8.95170       14.15171        4.94318
C         -9.18746       14.82156        6.20230
C         -8.49838       15.96845        6.34681
C         -7.61289       16.24495        5.23164
S         -7.95591       15.12567        3.91173
C         -6.60930       17.13727        5.15097
C         -6.22348       18.19147        6.06435
C         -5.13969       18.88383        5.66348
C         -4.57625       18.42633        4.40378
S         -5.43850       17.03362        3.85143
C         -3.51064       18.95144        3.77350
C         -2.94947       18.46209        2.54103
S         -1.22875       18.23745        2.49902
C         -1.25282       17.56760        0.93381
C         -2.52144       17.52932        0.41225
C         -3.49605       18.12205        1.29943
C         -4.93218       18.18923        0.80908
C         -5.15448       19.34067       -0.14983
C         -5.99543       20.35440        0.10212
C         -5.31327       16.82563        0.17640
C         -4.27554       16.20781       -0.78822
C         -2.94277       16.96041       -0.90788
H        -10.45380        9.48931       -8.71996
H         -8.00562        7.15171      -12.42706
H        -12.53963        9.80653      -10.66542
H         -5.86771        5.63692       -7.59302
H         -5.80731        3.78091       -5.95569
H         -7.54931        3.50625       -6.09198
H         -5.76499        3.12481       -3.63890
H         -6.68081        1.89685       -4.51176
H         -8.82695        3.03083       -3.79961
H         -8.66908        2.40827       -1.50901
H         -7.95885        1.28518       -2.45898
H         -7.06893        4.71188       -1.94516
H         -8.81429        4.83396       -2.20545
H         -9.13296        8.55545       -3.10619
H         -7.82057        6.76256       -0.98972
H         -9.00731        7.78793        0.64362
H         -9.68005       10.20136       -2.33871
H        -10.37485       11.27805       -1.18544
H        -11.37080        9.96622       -1.83933
H        -10.78297        8.93909        1.62507
H        -11.57220       10.26599        0.77609
H         -8.94797       11.09958        1.00543
H        -10.79632       10.99243        3.30324
H         -8.26961       12.63097        2.74979
H        -10.07789       12.40723        5.25545
H         -9.83923       14.40690        6.95846
H         -8.52881       16.57497        7.24016
H         -6.77119       18.41105        6.97027
H         -4.71400       19.70828        6.21958
H         -2.96545       19.75298        4.26629
H         -0.33750       17.22177        0.47320
H         -5.61478       18.36653        1.63950
H         -4.61499       19.33754       -1.09202
H         -6.56082       20.40403        1.02847
H         -6.13350       21.15756       -0.61351
H         -6.29006       16.88614       -0.31935
H         -5.45189       16.09855        0.98899
H         -4.06522       15.18605       -0.44077
H         -4.72045       16.09072       -1.78355
H         -3.04718       17.77612       -1.63255
H         -2.17777       16.28531       -1.30826
