136

C         -4.61093       -1.39394       -2.23483
C         -4.23465       -1.52443       -3.53117
C         -3.96568       -2.78347       -4.12651
N         -3.74584       -3.82930       -4.59775
C         -4.14806       -0.41205       -4.42401
N         -4.07677        0.48738       -5.14709
C         -4.87532       -2.49326       -1.26654
C         -5.66485       -1.98590       -0.23098
C         -6.08483       -2.72827        0.86569
C         -5.65018       -4.06906        0.94987
C         -4.84172       -4.58272       -0.07459
C         -4.44425       -3.81094       -1.19731
S         -4.40840       -6.22459        0.23910
C         -5.26206       -6.24953        1.71256
C         -5.87883       -5.04920        1.97276
C         -5.89434       -0.54617       -0.40968
O         -6.64959        0.13089        0.25387
C         -5.01142       -0.14603       -1.55866
C         -4.53171        1.09699       -1.72558
C         -4.84383        2.23162       -0.85663
C         -5.93114        3.06840       -1.14973
C         -6.16112        4.15864       -0.32230
C         -5.34093        4.38185        0.80852
C         -4.27575        3.54814        1.10796
C         -4.02092        2.47297        0.26114
C         -5.79189        5.56292        1.49819
C         -6.86683        6.12663        0.79208
C         -7.22303        5.27483       -0.43412
C         -7.00245        6.07810       -1.75416
C         -7.85075        7.33935       -1.93659
C         -8.67215        4.72809       -0.34708
C         -8.99020        3.86983        0.87630
C         -7.47291        7.28578        1.24715
C         -6.97814        7.92203        2.39045
C         -5.93835        7.31697        3.12005
C         -5.33956        6.13376        2.67579
C         -7.56972        9.18346        2.85631
C         -8.06981       10.10596        2.01583
C         -8.68958       11.36950        2.42769
C         -9.70721       11.90729        1.62029
C        -10.26015       13.12836        1.97431
C         -9.79631       13.82407        3.11134
C         -8.79122       13.30791        3.90693
C         -8.23611       12.07818        3.55797
C        -10.50264       15.07386        3.22788
C        -11.42206       15.18339        2.17156
C        -11.35181       13.94316        1.27239
C        -10.93243       14.34266       -0.17739
C         -9.55689       15.00721       -0.32132
C        -12.72959       13.21332        1.26739
C        -13.22224       12.68503        2.62072
C        -12.22956       16.30357        2.04289
C        -12.10283       17.34990        2.97221
C        -11.17136       17.22107        4.02700
C        -10.37345       16.08361        4.16386
C        -12.89049       18.58565        2.83633
C        -12.55081       19.88326        3.22852
C        -13.56478       20.79796        2.88691
C        -14.61797       20.17362        2.25809
S        -14.46657       18.53484        2.09656
C        -15.57836       21.13810        1.90297
C        -15.13162       22.37068        2.31440
C        -13.83501       22.23144        2.96675
C        -13.07973       23.20050        3.51275
C        -11.84884       22.91037        4.16629
N        -10.85606       22.67063        4.70898
C        -13.48031       24.56434        3.47578
N        -13.84471       25.66533        3.41611
C        -16.05489       23.38259        2.00678
C        -17.14553       22.88041        1.29625
S        -17.05275       21.14423        1.14344
C        -18.28346       23.54783        0.77157
C        -18.30256       24.81023        0.32169
C        -17.31452       25.88695        0.12880
C        -16.04275       25.78744       -0.33712
C        -15.17506       26.90823       -0.48207
N        -14.45080       27.80936       -0.58924
C        -15.46309       24.56412       -0.78859
N        -14.93697       23.60280       -1.16927
C        -18.07094       27.17080        0.25574
C        -19.43887       26.88461        0.21283
C        -19.66402       25.43214        0.20451
O        -20.74201       24.87604        0.17806
C        -20.43643       27.85240        0.19694
C        -20.03278       29.20627        0.19545
C        -18.66577       29.50142        0.27901
C        -17.66948       28.49713        0.34514
S        -18.38845       31.20416        0.26754
C        -20.04884       31.54855        0.11543
C        -20.81499       30.40693        0.11218
H         -6.68797       -2.27268        1.64643
H         -3.79184       -4.26300       -1.93602
H         -5.27088       -7.14286        2.32171
H         -6.46458       -4.86874        2.86616
H         -3.78641        1.33790       -2.47804
H         -6.57380        2.86529       -1.99964
H         -3.64413        3.73073        1.97018
H         -3.17578        1.82373        0.48047
H         -7.19890        5.42264       -2.61309
H         -5.94883        6.37756       -1.83681
H         -8.92057        7.13983       -1.83019
H         -7.68956        7.76817       -2.92993
H         -7.56622        8.12259       -1.23014
H         -8.90196        4.13699       -1.24311
H         -9.38004        5.56570       -0.34144
H         -8.50799        2.89034        0.81022
H        -10.07106        3.70306        0.93762
H         -8.68218        4.34861        1.81006
H         -8.32264        7.69892        0.71669
H         -5.57665        7.76822        4.04055
H         -4.53868        5.67658        3.24621
H         -7.58257        9.32932        3.93194
H         -8.04506        9.95268        0.93936
H        -10.05027       11.38548        0.73192
H         -8.42608       13.84827        4.77262
H         -7.42577       11.68783        4.16832
H        -11.67788       15.02921       -0.60033
H        -10.93560       13.45508       -0.82416
H         -9.42009       15.84041        0.37405
H         -9.43515       15.40645       -1.33464
H         -8.74784       14.28718       -0.16106
H        -12.70198       12.36373        0.57325
H        -13.49938       13.89549        0.88183
H        -12.68844       11.77297        2.90686
H        -14.28638       12.43082        2.55749
H        -13.11326       13.41558        3.42779
H        -12.93107       16.35875        1.21636
H        -11.05516       18.01282        4.76400
H         -9.66500       16.00198        4.97983
H        -11.60652       20.12246        3.70229
H        -15.94522       24.43075        2.24724
H        -19.22579       22.99726        0.82746
H        -21.48501       27.57077        0.15895
H        -16.63426       28.80397        0.43227
H        -20.38568       32.57344        0.04172
H        -21.89526       30.42446        0.03287
