81

C          1.92767        5.43187        0.85015
C          0.93170        6.38956        0.71716
F         -0.00768        6.49490        1.66581
C          0.88042        7.22057       -0.39378
C          1.85509        7.11003       -1.38853
C          2.86457        6.13853       -1.29360
C          2.88332        5.27365       -0.15935
C          3.81486        4.22868       -0.07923
C          4.65940        3.99276       -1.15258
C          4.70554        4.91568       -2.20593
C          3.83165        5.98643       -2.30030
C          5.78730        4.55403       -3.14551
O          6.10806        5.16565       -4.14308
C          6.43100        3.31882       -2.56794
C          5.53360        2.84626       -1.50521
C          5.27410        1.56474       -1.14650
C          5.88431        0.45837       -1.79718
N          6.36845       -0.45569       -2.32487
C          4.31016        1.21273       -0.16752
N          3.52467        0.92684        0.64782
C          7.67869        2.99636       -2.95128
C          8.59756        2.01064       -2.36111
C          8.73865        1.73729       -0.99233
F          7.95726        2.39333       -0.11672
C          9.64526        0.79688       -0.45366
F          9.61673        0.66298        0.88380
C         10.56404        0.02221       -1.20367
C         10.48783        0.27767       -2.61297
C          9.50038        1.29313       -3.19363
N          9.60239        1.41022       -4.52940
S         10.76403        0.34569       -5.02750
N         11.22245       -0.30247       -3.57826
C         11.51496       -0.94150       -0.59250
C         12.80076       -1.17398       -1.13770
C         13.73186       -2.06912       -0.56990
C         13.37027       -2.74170        0.59821
C         12.11263       -2.51529        1.12195
C         11.16667       -1.64712        0.58180
O         11.97855       -3.28969        2.23543
C         13.18102       -3.94615        2.32996
N         14.05192       -3.63633        1.38582
C         13.32327       -4.85521        3.46476
C         14.59840       -5.09149        4.01629
C         14.78301       -5.93981        5.12534
C         13.65694       -6.56553        5.67476
C         12.42320       -6.33615        5.09155
C         12.19528       -5.49886        4.00547
O         11.50031       -7.06946        5.77252
C         12.22479       -7.69096        6.76319
N         13.51872       -7.41357        6.74951
C         11.52959       -8.56647        7.67510
N         10.39232       -9.14427        7.33432
C         10.06642       -9.88169        8.42225
C         11.04596       -9.70570        9.46057
C         10.67236      -10.55243       10.62279
O         11.23613      -10.69619       11.68388
C          9.42375      -11.19846       10.15157
C          9.13478      -10.74301        8.81595
N          8.00369      -11.33886        8.35719
C          7.64456      -12.08964        9.36220
C          8.50530      -12.06035       10.56491
C         12.01046       -8.88066        9.06903
C         13.20882       -8.48480        9.74079
C         13.25902       -7.97007       10.97785
H          1.91785        4.79042        1.72793
H          0.07587        7.94381       -0.48212
H          1.79807        7.76667       -2.25440
H          3.82037        3.59043        0.79885
H          3.87745        6.65342       -3.15698
H          8.11818        3.55862       -3.78040
H         13.12347       -0.64835       -2.03563
H         14.70277       -2.23009       -1.02543
H         10.20616       -1.53835        1.07211
H         15.46962       -4.59501        3.58713
H         15.76796       -6.10376        5.54841
H         11.19792       -5.36267        3.60246
H          6.75168      -12.73262        9.36178
H          8.39593      -12.59819       11.48444
H         14.13975       -8.65323        9.20450
H         12.37470       -7.77138       11.57703
H         14.21711       -7.73792       11.43593
