170

C          0.32925       -0.11475       -4.58376
C         -0.75176        0.54628       -5.14447
C         -1.98940        0.55774       -4.48089
C         -2.18325       -0.03271       -3.21145
C         -1.03670       -0.59298       -2.62839
C          0.18474       -0.68847       -3.32599
C         -3.54896        0.08947       -2.52272
C         -4.27600        1.41825       -2.69529
C         -4.05977        2.46153       -1.78087
C         -4.60858        3.73564       -1.99271
C         -5.38930        3.98813       -3.11862
C         -5.62200        2.96646       -4.03405
C         -5.07112        1.69159       -3.82441
C         -4.15880       -0.90444       -1.77831
C         -5.51197       -0.67842       -1.16178
C         -6.67342       -0.99402       -1.87909
C         -7.93288       -0.86212       -1.28670
C         -8.04444       -0.43205        0.03442
C         -6.89547       -0.15259        0.77162
C         -5.63450       -0.27806        0.17850
C         -3.56089       -2.25403       -1.47363
C         -2.73428       -2.39468       -0.35273
C         -2.15405       -3.62748       -0.01883
C         -2.47767       -4.79542       -0.71871
C         -3.43163       -4.68365       -1.74403
C         -3.95129       -3.42902       -2.13131
C         -1.84777       -6.08198       -0.34140
C         -1.36336       -6.49725        0.90738
C         -0.80915       -7.79691        0.84977
C         -0.87173       -8.30432       -0.42671
S         -1.56208       -7.30126       -1.55375
C         -0.29507       -9.58985       -0.43573
C          0.12981       -9.90547        0.83220
C         -0.17050       -8.78533        1.72795
C          0.09142       -8.68566        3.04622
C          0.72828       -9.73595        3.76826
N          1.24769      -10.59077        4.35368
C         -0.24253       -7.51756        3.78401
N         -0.51320       -6.55750        4.37932
C          0.72489      -11.18842        0.87104
C          0.74332      -11.79551       -0.39372
S         -0.00686      -10.74945       -1.57847
C          1.28032      -13.12193       -0.80258
C          1.90527      -13.96568        0.13018
C          2.39526      -15.23117       -0.23845
C          2.26502      -15.69776       -1.55108
C          1.67618      -14.85648       -2.49591
C          1.19400      -13.59232       -2.12552
C          2.81568      -17.02867       -1.95072
C          4.20672      -17.07693       -2.49003
C          4.44512      -16.85611       -3.85460
C          5.74692      -16.88930       -4.36215
C          6.82072      -17.14335       -3.51107
C          6.59653      -17.34066       -2.14923
C          5.29644      -17.29556       -1.63783
C          2.06952      -18.17196       -1.83969
C          2.63225      -19.51781       -2.19270
C          3.27104      -20.30067       -1.21803
C          3.72517      -21.59061       -1.51908
C          3.52852      -22.12257       -2.79147
C          2.88175      -21.36214       -3.76448
C          2.43971      -20.06692       -3.46888
C          0.65032      -18.12250       -1.36823
C         -0.39785      -18.00934       -2.28743
C         -1.73635      -18.07576       -1.86398
C         -2.07067      -18.24562       -0.50949
C         -1.00781      -18.34745        0.40430
C          0.33272      -18.29330       -0.01759
C         -3.47944      -18.35680       -0.04576
C         -3.98988      -19.03086        1.07328
C         -5.40228      -18.91765        1.16867
C         -5.90765      -18.16524        0.12979
S         -4.76915      -17.57385       -0.92673
C         -7.31593      -18.10579        0.25325
C         -7.70495      -18.81185        1.37207
C         -6.50867      -19.36930        2.02702
C         -6.44613      -20.12183        3.14701
C         -7.62503      -20.47694        3.86144
N         -8.57120      -20.78903        4.45951
C         -5.18562      -20.58757        3.65632
N         -4.16963      -20.94642        4.06755
C         -9.10883      -18.78460        1.54199
C         -9.74533      -18.04866        0.53265
S         -8.56686      -17.43485       -0.60779
C        -11.19399      -17.78088        0.31644
C        -11.64859      -16.61385       -0.32189
C        -13.01843      -16.38211       -0.56333
C        -13.98498      -17.32021       -0.18511
C        -13.54534      -18.46142        0.49954
C        -12.17448      -18.68762        0.74790
C        -15.45181      -17.07619       -0.41558
C        -16.24637      -16.46313        0.69042
C        -16.82636      -17.28660        1.66640
C        -17.53788      -16.73316        2.73296
C        -17.68197      -15.35104        2.83130
C        -17.10948      -14.52197        1.86682
C        -16.38983      -15.07406        0.80169
C        -16.08691      -17.45411       -1.56993
C        -17.55273      -17.21376       -1.79219
C        -17.99571      -16.02647       -2.39322
C        -19.33841      -15.86876       -2.75693
C        -20.25349      -16.89314       -2.52082
C        -19.83122      -18.06861       -1.90335
C        -18.48876      -18.22855       -1.54059
C        -15.35178      -18.15887       -2.66385
C        -15.32260      -19.56080       -2.70327
C        -14.69723      -20.23053       -3.75892
C        -14.09636      -19.50596       -4.78609
C        -14.14514      -18.11270       -4.77262
C        -14.78037      -17.44125       -3.72270
H          1.28050       -0.15757       -5.10917
H         -0.64064        1.06115       -6.09608
H         -2.79999        1.07212       -4.98694
H         -1.04193       -0.93984       -1.60325
H          1.03440       -1.19413       -2.87232
H         -3.44068        2.29662       -0.90349
H         -4.41292        4.53755       -1.28426
H         -5.80601        4.98150       -3.28501
H         -6.21783        3.16719       -4.92126
H         -5.23061        0.92739       -4.58103
H         -6.60112       -1.36390       -2.89792
H         -8.82710       -1.10345       -1.85494
H         -9.02525       -0.32438        0.49126
H         -6.98189        0.15540        1.81079
H         -4.74996       -0.07975        0.77767
H         -2.53869       -1.53534        0.28342
H         -1.44594       -3.65284        0.80530
H         -3.80452       -5.57548       -2.24614
H         -4.69946       -3.39982       -2.92074
H         -1.42898       -5.87373        1.79044
H          1.13302      -11.66310        1.75403
H          2.03206      -13.65890        1.16530
H          2.88992      -15.84380        0.51119
H          1.59259      -15.16521       -3.53443
H          0.75029      -12.98676       -2.91166
H          3.61887      -16.65508       -4.53105
H          5.92261      -16.72172       -5.42166
H          7.83174      -17.18672       -3.90842
H          7.43475      -17.53345       -1.48498
H          5.13878      -17.43474       -0.57211
H          3.40398      -19.91887       -0.20950
H          4.21875      -22.18729       -0.75574
H          3.86980      -23.12900       -3.02166
H          2.71084      -21.78478       -4.75167
H          1.92518      -19.49820       -4.23827
H         -0.18449      -17.89641       -3.34776
H         -2.50994      -18.01887       -2.62627
H         -1.20242      -18.47962        1.46602
H          1.12539      -18.40694        0.71773
H         -3.35284      -19.58509        1.75140
H         -9.65670      -19.25708        2.34804
H        -10.94144      -15.85023       -0.63915
H        -13.31321      -15.45035       -1.03943
H        -14.27013      -19.18837        0.85761
H        -11.89376      -19.59634        1.27587
H        -16.72132      -18.36612        1.60246
H        -17.97496      -17.38100        3.48802
H        -18.23726      -14.92073        3.66102
H        -17.21973      -13.44369        1.94877
H        -15.94115      -14.41389        0.06474
H        -17.29227      -15.22811       -2.61189
H        -19.66652      -14.95442       -3.24492
H        -21.29114      -16.77961       -2.82617
H        -20.54320      -18.87036       -1.72389
H        -18.17427      -19.16459       -1.08797
H        -15.80553      -20.14082       -1.92164
H        -14.68480      -21.31709       -3.78270
H        -13.59925      -20.02653       -5.60100
H        -13.69464      -17.54878       -5.58528
H        -14.84180      -16.35687       -3.74636
