110

C         -6.18158       -4.54884      -14.59013
N         -6.75159       -5.73885      -14.28942
N         -6.36352       -6.53963      -13.16206
C         -5.39559       -6.18017      -12.27687
C         -4.72158       -4.96107      -12.55419
C         -5.14299       -4.12605      -13.74311
N         -4.43709       -2.98936      -13.87489
S         -3.32810       -2.97580      -12.64342
N         -3.69250       -4.40286      -11.88699
C         -5.11925       -7.06956      -11.15832
C         -5.19642       -8.44396      -11.10248
C         -4.70656       -9.03088       -9.86556
C         -4.48244      -10.38423       -9.48012
C         -4.68907      -11.48809      -10.46379
C         -5.25119      -12.74670      -10.28911
C         -5.29767      -13.53053      -11.47788
C         -4.84716      -12.83174      -12.57284
S         -4.11576      -11.36154      -12.09054
C         -4.90246      -13.19239      -14.01982
Cl        -5.92023      -15.12440      -11.48436
C         -4.08299      -10.69309       -8.15576
C         -3.87341       -9.68500       -7.20239
C         -4.00202       -8.32848       -7.61297
C         -4.43973       -8.02157       -8.92633
S         -4.76465       -6.46337       -9.61811
C         -3.66930       -7.24416       -6.63893
C         -3.98492       -7.11925       -5.29136
C         -3.43055       -5.95716       -4.67334
C         -2.75801       -5.15831       -5.56900
S         -2.65686       -5.91665       -7.09710
C         -2.13143       -3.81697       -5.36135
Cl        -3.62539       -5.63840       -3.00237
C         -3.54197      -10.27481       -5.92051
C         -3.48341      -11.65313       -5.90436
S         -3.74297      -12.25400       -7.46333
C         -3.17575      -12.51858       -4.78282
C         -3.53342      -13.85520       -4.55730
C         -3.00818      -14.33683       -3.33198
C         -2.28156      -13.34064       -2.69359
S         -2.21996      -11.88638       -3.47417
C         -1.81709      -13.80603       -1.45036
C         -2.20331      -15.10757       -1.30807
C         -3.05848      -15.53935       -2.47177
C         -4.20036      -16.28908       -2.29553
C         -4.53793      -16.27632       -0.81355
N         -4.81797      -16.26573        0.41588
C         -4.31511      -17.57981       -3.09005
N         -4.41031      -18.65058       -3.74916
C         -1.79851      -15.62989       -0.04813
C         -1.33589      -14.61122        0.79436
S         -1.09939      -13.13768       -0.10462
C         -1.11569      -14.67310        2.23080
C         -0.24367      -13.93809        3.00063
C         -0.20785      -14.29543        4.41269
C          0.60739      -13.83385        5.48568
C          1.63270      -12.77942        5.24702
C          1.94432      -11.65972        6.00896
C          2.98111      -10.85897        5.45138
C          3.38564      -11.32306        4.22187
S          2.72695      -12.86985        3.91318
C          4.30040      -10.67573        3.23792
Cl         3.57182       -9.45507        6.23072
C          0.44727      -14.35960        6.79082
C         -0.52631      -15.32663        7.07537
C         -1.38762      -15.74595        6.01792
C         -1.19303      -15.25467        4.69791
S         -2.05672      -15.66413        3.24293
C         -2.48492      -16.72086        6.30082
C         -2.94286      -17.80114        5.55726
C         -4.00455      -18.52389        6.17787
C         -4.30191      -18.03511        7.42798
S         -3.49109      -16.55377        7.70176
C         -5.21570      -18.58673        8.47211
Cl        -4.74231      -19.87262        5.42482
C         -0.42853      -15.73393        8.46995
C          0.48313      -15.03171        9.22714
S          1.35538      -13.97720        8.22180
C          0.78282      -15.09271       10.65203
N          1.27222      -13.98838       11.28435
N          1.59004      -13.93238       12.68388
C          1.43699      -14.98497       13.52130
C          0.93045      -16.15793       12.95246
C          0.59009      -16.23299       11.47542
N          0.12301      -17.44547       11.11842
S          0.13164      -18.39169       12.47921
N          0.71334      -17.32145       13.60028
H         -6.54354       -4.00211      -15.44744
H         -5.53264       -9.01560      -11.95907
H         -5.63322      -13.10994       -9.34432
H         -3.92009      -13.10226      -14.49353
H         -5.60203      -12.53033      -14.54297
H         -5.25323      -14.21770      -14.17140
H         -4.57960       -7.84073       -4.74580
H         -2.85352       -3.02255       -5.58187
H         -1.25950       -3.67124       -6.00758
H         -1.79497       -3.68650       -4.32783
H         -3.35959       -9.69225       -5.02742
H         -4.14868      -14.43146       -5.24014
H         -1.97882      -16.63918        0.30583
H          0.39496      -13.18901        2.55332
H          1.45008      -11.40923        6.93941
H          4.06015       -9.60976        3.14470
H          4.20351      -11.11111        2.23775
H          5.34252      -10.76528        3.55731
H         -2.53487      -18.08733        4.59715
H         -6.08450      -17.93738        8.61611
H         -4.69180      -18.68612        9.42988
H         -5.58083      -19.58418        8.20656
H         -1.04690      -16.50331        8.91363
H          1.70417      -14.86104       14.55872
