106

C          1.23071       -5.48325       -4.28097
C          0.60177       -4.65762       -3.38578
C          1.49130       -3.71706       -2.74086
C          1.27568       -2.78786       -1.69410
C         -0.02926       -2.76015       -1.00417
C         -0.87132       -1.68652       -0.76438
C         -2.05836       -2.05447       -0.06866
C         -2.12439       -3.40806        0.17478
S         -0.67928       -4.19078       -0.30108
C         -3.24143       -4.19877        0.76892
Cl        -3.25264       -0.90458        0.35698
C          2.27505       -1.86929       -1.32441
C          3.48360       -1.80770       -2.01817
C          3.76073       -2.82758       -2.96565
C          2.77187       -3.77515       -3.31146
S          2.88355       -5.13515       -4.38821
C          5.10390       -2.89716       -3.58789
C          5.46506       -3.14331       -4.90342
C          6.87382       -3.14198       -5.11174
C          7.56932       -2.81698       -3.96986
S          6.52663       -2.74731       -2.61960
C          9.03044       -2.57015       -3.80852
Cl         7.56785       -3.46881       -6.64101
C          4.21347       -0.62103       -1.62375
C          3.70275        0.05311       -0.53067
S          2.29702       -0.75159       -0.01214
C          4.26620        1.23359        0.13119
C          3.87272        1.95363        1.25047
O          2.81933        1.64373        2.05374
C          1.54863        1.99156        1.50726
C          4.81919        2.96352        1.63520
C          5.91882        3.02599        0.80019
S          5.72346        1.93542       -0.50417
C          7.12316        3.82670        0.92734
C          7.89471        4.35426       -0.08607
C          9.07640        5.05221        0.36856
C          9.99611        5.69562       -0.62674
C          9.20811        5.00325        1.76061
S          7.82803        4.18992        2.43798
C         10.29103        5.50669        2.63553
C         10.32599        5.68602        4.01822
O          9.24810        5.37393        4.78646
C          9.29793        5.82899        6.13025
C         11.58177        6.19795        4.49237
C         12.49847        6.41952        3.48397
S         11.83033        5.94920        1.98314
C         13.83573        6.96989        3.62057
C         14.32389        7.76653        4.63747
C         15.72474        8.15193        4.51436
C         16.63417        8.85146        5.38315
C         16.23595        9.07104        6.82726
C         15.25665        8.44474        7.59762
C         15.17597        8.90023        8.94886
C         16.18056        9.78137        9.25310
S         16.98232       10.26696        7.83635
C         16.57778       10.33079       10.58296
Cl        13.99205        8.32108       10.03978
C         17.88601        9.28858        4.85677
C         18.20699        9.13497        3.48907
C         17.36718        8.30960        2.70390
C         16.16855        7.79466        3.23103
S         15.07543        6.66718        2.50040
C         17.71361        8.07222        1.27968
C         16.89819        8.08518        0.15678
C         17.61269        7.95822       -1.06722
C         18.97270        7.91101       -0.86447
S         19.32485        7.67804        0.79503
C         20.08492        8.02983       -1.84972
Cl        16.81784        7.98217       -2.58175
C         19.35255        9.93910        3.13755
C         20.01642       10.46060        4.20414
S         19.27198       10.00617        5.64782
H          0.79501       -6.28550       -4.86070
H         -0.45756       -4.74285       -3.17731
H         -0.64918       -0.67396       -1.07779
H         -3.68717       -3.67298        1.61935
H         -2.91200       -5.18060        1.12307
H         -4.02482       -4.35568        0.01846
H          4.75117       -3.32468       -5.69663
H          9.60288       -3.46967       -4.05512
H          9.29347       -2.26735       -2.78910
H          9.34953       -1.76461       -4.47995
H          5.12008       -0.30569       -2.12701
H          1.14977        2.86622        2.02739
H          0.86279        1.15811        1.70961
H          1.55894        2.18297        0.42978
H          4.70815        3.57891        2.51950
H          7.64141        4.24671       -1.13374
H          9.51670        5.77570       -1.60800
H         10.90065        5.09458       -0.75680
H         10.26272        6.71233       -0.32599
H          8.36640        5.53163        6.62039
H          9.36556        6.92135        6.16976
H         10.12184        5.36368        6.68272
H         11.81400        6.38869        5.53009
H         13.68472        8.08893        5.44638
H         14.60885        7.66240        7.23892
H         15.77809       10.94509       11.00677
H         17.48609       10.94127       10.52983
H         16.78458        9.50910       11.27956
H         15.82490        8.23233        0.19743
H         20.84609        7.25822       -1.70233
H         20.56342        9.01097       -1.74426
H         19.72490        7.95545       -2.88061
H         19.70408       10.09899        2.11997
H         20.92224       11.05505        4.20108
