98

C         -2.73568       -2.69612        1.32151
C         -2.03229       -2.51952        0.16312
C         -0.80026       -1.75452        0.28542
C          0.14649       -1.30040       -0.69464
C         -0.16171       -1.48005       -2.19654
C         -1.27456       -1.98427       -2.87563
C         -1.17925       -2.01377       -4.30571
C         -0.00780       -1.46881       -4.75141
S          0.93730       -0.98357       -3.44803
C          0.48496       -1.25708       -6.14086
Cl        -2.42357       -2.64430       -5.29476
C          1.35625       -0.67858       -0.22454
C          1.64211       -0.48024        1.14497
C          0.65644       -0.86843        2.12003
C         -0.55085       -1.48565        1.65348
S         -1.92835       -1.99366        2.60026
C          0.88342       -0.65720        3.62564
C          0.11986       -0.98878        4.74933
C          0.70051       -0.67375        6.01691
C          1.93638       -0.10720        5.88077
S          2.28275        0.14804        4.25096
C          2.92379        0.28584        6.92415
Cl        -0.08772       -1.01910        7.49446
C          2.97344        0.11551        1.27242
C          3.61965        0.45109        0.10998
S          2.68397       -0.06661       -1.16617
C          4.90605        1.12606       -0.08996
N          5.56206        1.46119        1.03863
N          6.78866        2.11010        0.97142
C          7.33722        2.42063       -0.22511
C          6.67641        2.08210       -1.39383
C          5.45166        1.42858       -1.32340
C          8.64092        3.10519       -0.21292
N          9.47396        2.81015        0.80640
N         10.73292        3.39030        0.87936
C         11.14356        4.27213       -0.05418
C         10.30954        4.59358       -1.11616
C          9.04768        3.99609       -1.19843
C         12.49372        4.83057        0.10950
N         12.73254        6.04599       -0.43189
N         13.97855        6.63273       -0.32469
C         14.98209        5.98273        0.30161
C         14.77063        4.73712        0.87574
C         13.50794        4.15457        0.78094
C         16.27006        6.67897        0.31339
C         16.53623        8.02762        0.39691
C         17.94665        8.36855        0.48292
C         18.62026        9.60409        0.71372
C         17.83707       10.84023        1.01884
C         18.05090       12.15763        0.62471
C         17.05173       13.06659        1.07820
C         16.03841       12.42513        1.74955
S         16.46438       10.80296        2.07204
C         14.73107       12.97734        2.20970
Cl        17.11755       14.74220        0.73650
C         20.03482        9.66903        0.62062
C         20.80230        8.54587        0.25935
C         20.12988        7.30509        0.09272
C         18.72417        7.22752        0.23762
S         17.71547        5.82006        0.12666
C         20.88401        6.06869       -0.26468
C         20.77048        4.78065        0.24538
C         21.57523        3.81955       -0.43379
C         22.36856        4.39579       -1.39825
S         22.01433        6.06079       -1.56747
C         23.40243        3.77473       -2.27733
Cl        21.51282        2.15289       -0.04541
C         22.19616        8.91650        0.11032
C         22.45968       10.23372        0.38037
S         21.07948       11.02817        0.93778
H         -3.68031       -3.20609        1.45624
H         -2.43906       -2.95704       -0.72729
H         -2.17777       -2.33990       -2.42240
H          0.40792       -2.17870       -6.72373
H          1.53609       -0.94328       -6.16161
H         -0.10186       -0.47652       -6.63543
H         -0.84063       -1.46942        4.73727
H          2.44128        0.85500        7.72201
H          3.73316        0.90155        6.51457
H          3.37713       -0.60901        7.36205
H          3.49050        0.34399        2.18660
H          7.10411        2.29584       -2.36972
H          4.94181        1.17307       -2.25473
H         10.63132        5.29304       -1.88241
H          8.40099        4.25804       -2.03024
H         15.56197        4.20921        1.39760
H         13.32870        3.17481        1.21650
H         15.72728        8.74572        0.44310
H         18.88453       12.47781        0.01388
H         14.88164       13.81536        2.89650
H         14.11438       12.22756        2.71556
H         14.15796       13.34146        1.34792
H         20.09554        4.51133        1.04846
H         24.40422        4.10786       -1.98361
H         23.24040        4.04832       -3.32488
H         23.38736        2.68206       -2.21804
H         22.98827        8.25125       -0.20477
H         23.40963       10.74718        0.31185
