107

C          3.42553        5.53334        4.08299
C          2.78060        6.10371        5.12329
C          3.24763        7.30326        5.72953
N          3.63396        8.28842        6.20577
C          1.65711        5.46750        5.72933
N          0.76410        4.92761        6.23690
C          4.73216        5.91619        3.52052
C          5.38256        4.73507        3.12615
C          6.63080        4.73502        2.53378
C          7.18781        5.97620        2.19169
C          6.47133        7.18240        2.46000
C          5.25945        7.14690        3.17249
C          6.96476        8.39436        1.95688
C          8.15779        8.43279        1.23435
C          8.89158        7.26665        1.03562
C          8.41181        6.04611        1.51314
C          4.42373        3.59800        3.17346
O          4.64058        2.43528        2.91339
C          3.10015        4.25702        3.44999
C          2.03269        3.87868        2.72028
C          0.94384        4.74787        2.36671
C         -0.40021        4.42575        2.12469
C         -1.15955        5.56233        1.74303
C         -0.37399        6.68657        1.70599
S          1.23312        6.43508        1.98065
C         -1.16482        7.80278        1.38594
C         -2.46152        7.39803        1.18092
C         -2.53474        5.94089        1.38269
C         -3.60408        5.13275        1.25093
C         -4.88409        5.64349        0.89104
N         -5.92229        6.06022        0.60150
C         -3.50504        3.72626        1.44918
N         -3.41470        2.57985        1.60488
C         -3.28492        8.50352        0.84526
C         -2.55975        9.71007        0.83507
S         -0.89107        9.42808        1.26845
C         -3.05121       11.12740        0.56657
C         -1.91791       11.98668       -0.06799
N         -4.07112       11.08169       -0.38917
N         -5.29593       11.89080       -0.38224
C         -5.72369       12.69382        0.66477
C         -4.86243       12.48566        1.81433
C         -3.60474       11.73439        1.76863
N         -3.07668       11.75394        3.00578
O         -3.96035       12.44924        3.79977
N         -5.05485       12.88134        3.08555
C         -7.21986       12.37528        0.97177
C         -5.76222       14.17653        0.25592
C         -5.58513       15.32378        1.04307
C         -5.76871       16.50535        0.29459
C         -6.05801       16.23541       -1.02518
S         -6.11375       14.61951       -1.40575
C         -6.29733       17.45530       -1.69812
C         -6.18093       18.48277       -0.79155
C         -5.78872       17.95283        0.51008
C         -5.48915       18.64307        1.62916
C         -5.54340       20.06488        1.67841
N         -5.60340       21.22349        1.73863
C         -5.09407       17.98572        2.82428
N         -4.77357       17.44482        3.80164
C         -6.53015       19.71832       -1.35926
C         -6.79881       19.61260       -2.72690
S         -6.71228       17.93758       -3.23505
C         -7.19039       20.61041       -3.67974
C         -6.79196       21.89549       -3.64887
C         -7.30086       23.06899       -4.40767
C         -7.74244       23.09083       -5.68862
C         -8.08930       24.29790       -6.36372
N         -8.37080       25.27994       -6.91186
C         -7.82274       21.91267       -6.48606
N         -7.89430       20.94958       -7.12794
C         -7.04668       24.26421       -3.54081
C         -6.19446       23.87022       -2.50254
C         -5.83821       22.45982       -2.63832
O         -4.90016       21.92385       -2.08516
C         -5.77638       24.69891       -1.47641
C         -6.20528       26.02434       -1.49492
C         -7.04723       26.48041       -2.54881
C         -7.48170       25.58346       -3.55556
C         -7.42579       27.83177       -2.56281
C         -6.99490       28.70825       -1.56282
C         -6.19470       28.24606       -0.52183
C         -5.80458       26.90921       -0.48531
H          7.10288        3.79846        2.25180
H          4.70924        8.06551        3.36014
H          6.40779        9.31946        2.09443
H          8.51321        9.37506        0.82438
H          9.82998        7.30291        0.48781
H          8.99213        5.14515        1.32464
H          2.05544        2.91084        2.21899
H         -0.77677        3.41592        2.24207
H         -4.34538        8.46909        0.62119
H         -1.45191       11.45552       -0.90599
H         -1.13007       12.19176        0.66701
H         -2.30937       12.95036       -0.41135
H         -7.32508       11.32686        1.27126
H         -7.84466       12.55617        0.08896
H         -7.60598       13.02503        1.76617
H         -5.36986       15.28467        2.10361
H         -6.57822       20.65665       -0.82203
H         -7.91965       20.27806       -4.41327
H         -5.13834       24.30878       -0.68767
H         -8.15767       25.95665       -4.31887
H         -8.05137       28.22249       -3.36310
H         -7.28456       29.75565       -1.59727
H         -5.86663       28.92701        0.25959
H         -5.17737       26.56550        0.33542
