105

C          1.22427        2.03042        2.62019
C          1.35441        3.00572        3.54375
C          0.67550        2.95920        4.79314
N          0.08767        2.93318        5.79388
C          2.26664        4.09286        3.34740
N          3.03046        4.94722        3.19500
C          0.60752        0.69906        2.80266
C          1.29377       -0.21550        1.98425
C          0.91696       -1.54393        1.86431
C         -0.28936       -1.93626        2.46848
C         -1.06477       -0.97724        3.18448
C         -0.56681        0.31551        3.42192
C         -2.36698       -1.31043        3.58048
C         -2.88128       -2.58521        3.34663
C         -2.08333       -3.55804        2.75258
C         -0.79820       -3.23535        2.30889
C          2.22218        0.52394        1.08760
O          2.99099        0.06280        0.27289
C          1.86739        1.97226        1.30985
C          1.73266        2.78032        0.23998
C          0.82923        3.90901        0.12328
C          0.98989        5.15074       -0.34413
C         -0.20965        5.91894       -0.32883
N         -1.19707        5.12718        0.14684
C         -0.66522        3.87137        0.45584
O         -1.24775        2.91572        0.93988
C         -2.55461        5.54439        0.39431
C         -0.03942        7.17346       -0.74399
C          1.41398        7.22685       -1.10548
O          1.97248        8.21688       -1.54824
N          1.95914        5.97210       -0.81968
C          3.34970        5.67589       -0.98766
C         -0.93631        8.31019       -0.85273
C         -1.56268        8.69529       -2.03648
C         -2.40834        9.87448       -2.12294
N         -3.03439       10.15076       -3.28738
C         -2.85222        9.28729       -4.32031
C         -2.03055        8.18305       -4.22743
N         -1.37335        7.88241       -3.09191
F         -1.88203        7.35238       -5.26888
F         -3.52078        9.51947       -5.45838
C         -2.62679       10.72093       -1.01110
C         -2.07875       10.29535        0.23352
C         -1.19787        9.07518        0.30522
N         -0.74018        8.82208        1.54262
S         -1.42973        9.94344        2.54530
N         -2.26828       10.85525        1.44115
C         -3.48563       11.90941       -1.02486
C         -3.26574       13.22193       -1.20014
C         -4.46337       13.98775       -1.07954
N         -5.49082       13.13983       -0.85851
C         -4.98644       11.84034       -0.76541
O         -5.59725       10.81467       -0.50930
C         -6.87222       13.51869       -0.68473
C         -4.28110       15.29983       -1.22716
C         -2.79810       15.42584       -1.42042
O         -2.19878       16.48765       -1.48084
N         -2.27505       14.12479       -1.45377
C         -0.89040       13.89787       -1.73688
C         -5.20953       16.38808       -1.18355
C         -5.39093       17.30601       -2.14416
C         -6.25161       18.51067       -2.16496
C         -7.40403       18.69517       -1.47832
C         -8.21943       19.84214       -1.64142
N         -8.89744       20.78786       -1.77152
C         -7.93767       17.71487       -0.58830
N         -8.36107       16.90183        0.12496
C         -5.70346       19.39649       -3.23675
C         -4.76066       18.67080       -3.97689
C         -4.58776       17.32715       -3.41608
O         -3.95979       16.42399       -3.92945
C         -4.07168       19.17781       -5.06544
C         -4.31680       20.49985       -5.44024
C         -5.24696       21.28194       -4.69931
C         -5.93169       20.72063       -3.59636
C         -5.46268       22.61435       -5.08330
C         -4.78418       23.16495       -6.17299
C         -3.87983       22.39323       -6.89683
C         -3.64608       21.06827       -6.53219
H          1.46879       -2.21524        1.21204
H         -1.16098        1.02806        3.98605
H         -3.01490       -0.55929        4.02891
H         -3.90675       -2.81472        3.62589
H         -2.47412       -4.56210        2.60673
H         -0.21131       -4.00272        1.80839
H          2.16218        2.45102       -0.70798
H         -2.98735        5.96241       -0.52034
H         -2.54815        6.30997        1.17606
H         -3.16600        4.70339        0.73051
H          3.90645        6.60318       -1.15594
H          3.46462        5.03254       -1.86278
H          3.73948        5.18758       -0.09166
H         -7.13217       14.32789       -1.37590
H         -7.02367       13.85810        0.34496
H         -7.52959       12.66861       -0.88246
H         -0.43230       14.82784       -2.09718
H         -0.78779       13.14446       -2.52077
H         -0.37520       13.59382       -0.82406
H         -5.75297       16.42994       -0.24476
H         -3.35061       18.55538       -5.59034
H         -6.61813       21.35465       -3.04375
H         -6.16397       23.24106       -4.53559
H         -4.96204       24.19938       -6.45628
H         -3.35266       22.82315       -7.74492
H         -2.93164       20.48266       -7.10803
