121

C          5.83440        1.15466        6.93579
C          4.46538        0.92942        6.86826
F          3.99737       -0.02405        6.05259
C          3.57793        1.66120        7.64563
C          4.05769        2.67624        8.47520
C          5.43224        2.94311        8.55204
C          6.33893        2.13290        7.80028
C          7.72366        2.29525        7.95116
C          8.18425        3.25239        8.83771
C          7.28841        4.14661        9.44241
C          5.91991        3.99268        9.34671
C          8.03852        5.25845       10.08070
O          7.58028        6.22064       10.65554
C          9.47734        4.98501        9.74886
C          9.53091        3.58043        9.34256
C         10.44133        2.65735        9.72875
C         11.50413        2.99795       10.61353
N         12.33826        3.26791       11.37310
C         10.27894        1.27086        9.44311
N         10.12460        0.14849        9.19348
C         10.34623        5.99328        9.56753
C         11.61423        5.88646        8.87592
C         12.78646        6.19523        9.47895
C         13.90121        5.81086        8.63608
C         15.26777        5.99197        8.96378
N         16.39526        6.12769        9.21880
C         13.43326        5.25908        7.50260
C         11.96870        5.27732        7.56147
C         11.12963        4.83915        6.59575
C         11.40587        3.89880        5.48284
C         10.24879        3.76502        4.80178
C          9.23347        4.60457        5.38041
C          9.72593        5.22559        6.45852
C          7.94193        4.73853        4.83588
N          6.88234        4.82932        4.36146
C         12.54934        3.06981        5.21886
C         12.60897        2.08194        4.31750
C         13.73910        1.23652        4.22493
S         14.15659        0.67905        2.67422
C         15.55624       -0.13928        3.23150
C         15.60480       -0.13394        4.62187
C         14.57639        0.70669        5.19067
C         14.50132        0.90177        6.67746
C         15.90538        0.90191        7.26504
C         16.57075       -0.44304        6.99604
C         16.61375       -0.85298        5.50356
C         16.34576       -2.34539        5.44045
O         17.23215       -3.19407        5.49021
C         16.42946       -0.75177        2.28919
C         16.64010       -0.22070        1.07100
C         17.51287       -0.82664        0.10704
C         17.02048       -1.24247       -1.08056
C         17.99746       -2.07710       -1.73914
C         17.75852       -2.74098       -2.96594
N         17.57338       -3.25115       -3.99151
C         19.09116       -2.18376       -0.96194
C         18.92570       -1.28366        0.18776
C         19.85053       -0.91479        1.10911
C         21.27079       -1.32011        1.29146
C         21.62535       -0.90441        2.52726
C         20.57441       -0.09913        3.10455
C         19.56175       -0.01714        2.23388
C         20.63656        0.55391        4.35897
N         20.66584        1.08438        5.39027
C         22.24307       -1.99334        0.45603
C         22.28527       -1.86380       -0.87623
C         23.18059       -2.58678       -1.74848
C         23.08405       -2.64297       -3.08569
C         23.79299       -3.76422       -3.79550
O         24.74824       -4.40580       -3.41314
C         23.02088       -3.98887       -5.03327
C         23.20153       -5.01079       -5.94775
C         22.30335       -5.10242       -7.01896
C         21.20101       -4.19942       -7.10366
C         20.29656       -4.32330       -8.16693
C         20.49820       -5.29210       -9.14356
C         21.57891       -6.16132       -9.08140
C         22.47409       -6.07508       -8.01496
F         19.64175       -5.38042      -10.16950
C         21.04302       -3.18322       -6.14314
C         21.99534       -3.04076       -5.14410
C         22.19141       -2.02630       -4.07715
C         21.89515       -0.71046       -4.21659
C         22.32634        0.27902       -3.29003
N         22.64282        1.09960       -2.53097
C         21.25313       -0.19243       -5.38017
N         20.74937        0.22817       -6.33720
H          6.49015        0.54700        6.31836
H          2.51626        1.44126        7.59610
H          3.34842        3.24685        9.07136
H          8.41066        1.66493        7.39184
H          5.25633        4.67234        9.87355
H         10.06277        7.00339        9.86837
H         12.91247        6.59176       10.47754
H         14.04909        4.97031        6.66755
H         10.04920        3.10112        3.97278
H          9.19501        5.95489        7.04830
H         13.40834        3.24832        5.84151
H         11.79841        1.89073        3.62153
H         13.88882        0.10281        7.11135
H         14.03520        1.83723        6.97387
H         15.84896        1.08966        8.34288
H         16.50219        1.71284        6.82664
H         16.03831       -1.20053        7.58808
H         17.59160       -0.42187        7.39573
H         17.62098       -0.66628        5.11286
H         15.28174       -2.64582        5.44156
H         16.97541       -1.64207        2.59441
H         16.13109        0.67912        0.73024
H         16.00146       -1.11947       -1.42473
H         19.91896       -2.84350       -1.14872
H         22.58965       -1.02713        3.00193
H         18.68480        0.58613        2.38719
H         23.00090       -2.58152        0.97271
H         21.54435       -1.22621       -1.33909
H         23.90840       -3.23523       -1.25402
H         24.02340       -5.71056       -5.82562
H         19.43925       -3.66168       -8.26191
H         21.71917       -6.89990       -9.86422
H         23.31505       -6.76459       -7.97696
H         20.18292       -2.52054       -6.20757
