91

C         19.13605        0.97316       -6.59933
C         20.23155        1.40211       -7.33960
F         20.51912        0.79600       -8.49880
C         21.04103        2.43542       -6.88924
C         20.73411        3.08040       -5.68921
C         19.62854        2.67665       -4.92131
C         18.83379        1.58001       -5.37273
C         17.78614        1.08582       -4.57384
C         17.55434        1.65795       -3.33286
C         18.26155        2.81260       -2.96094
C         19.30209        3.32496       -3.71883
C         17.72551        3.35255       -1.68859
O         18.07516        4.36716       -1.12495
C         16.60880        2.42321       -1.29853
C         16.74198        1.24338       -2.16210
C         16.60121       -0.04691       -1.76736
C         16.39072       -0.37213       -0.39466
N         16.27572       -0.60243        0.73733
C         16.81653       -1.15075       -2.63939
N         16.96486       -2.03420       -3.37546
C         15.65015        2.80151       -0.43608
C         14.39123        2.14550       -0.20334
C         13.51500        1.50673       -1.22792
N         12.37017        1.03730       -0.82477
C         12.36252        1.36788        0.49083
C         13.58339        2.05209        0.85547
C         13.49625        2.44465        2.29798
S         14.69016        3.08875        3.25565
C         12.08696        2.05104        2.64637
C         11.51699        1.34725        1.51549
N         10.23130        0.98139        1.76025
C         10.01683        1.46440        2.95125
C         11.14649        2.19170        3.58124
C         11.12590        2.98807        4.74282
S         10.22527        2.48560        6.13541
C         10.63778        3.94557        6.97174
N         10.27352        4.41407        8.19706
C         10.81493        5.59870        8.41537
S         11.86587        6.16058        7.13831
C         11.45144        4.74160        6.22922
C         11.71332        4.22786        4.93248
C         10.63878        6.41634        9.54167
C         11.63079        7.29214       10.20328
N         11.22922        7.92779       11.26765
C          9.94269        7.50896       11.39395
C          9.57883        6.59440       10.32709
C          8.15148        6.17765       10.51877
S          7.15990        5.25270        9.56124
C          7.80813        6.86119       11.80602
C          8.93493        7.64811       12.24539
N          8.66877        8.25534       13.43168
C          7.46475        7.83863       13.70072
C          6.83765        6.92016       12.71086
C          5.56983        6.27975       12.82139
C          5.16924        5.47643       13.81612
C          3.69985        5.19424       13.96361
O          2.82898        5.32860       13.13092
C          3.51600        4.82028       15.37816
C          2.31023        4.57877       16.01536
C          2.33238        4.31812       17.39204
C          3.56960        4.36618       18.10089
C          3.57567        4.13384       19.48236
C          2.39172        3.83016       20.14384
C          1.18529        3.75940       19.46108
C          1.15273        4.01151       18.08878
F          2.41829        3.59316       21.46162
C          4.77291        4.62330       17.41706
C          4.75279        4.79835       16.04127
C          5.82627        4.95567       15.02166
C          7.05921        4.40345       15.11398
C          7.91535        4.23482       13.98573
N          8.61694        4.06394       13.07688
C          7.55651        3.82074       16.31220
N          7.95741        3.35588       17.30131
H         18.54289        0.14826       -6.98563
H         21.90591        2.73180       -7.47505
H         21.37960        3.88865       -5.35027
H         17.20392        0.23762       -4.92466
H         19.85895        4.18936       -3.36650
H         15.78683        3.73705        0.11027
H         13.84070        1.47159       -2.27732
H          9.05473        1.38031        3.47987
H         12.29052        4.76039        4.18666
H         12.65056        7.37180        9.79832
H          6.90883        8.11812       14.60851
H          4.85364        6.55968       12.04610
H          1.38241        4.59299       15.44896
H          4.49627        4.16939       20.05902
H          0.27804        3.50723       20.00114
H          0.19914        3.95464       17.56719
H          5.69889        4.66878       17.98335
