122

C         -9.49034        0.73154       -9.09387
C         -9.37069        0.48160       -7.72213
C         -9.25854       -0.82538       -7.23902
C         -9.29151       -1.91074       -8.11462
C         -9.46395       -1.67249       -9.47376
C         -9.54035       -0.34095       -9.97923
C         -9.61676       -0.39439      -11.48455
C         -9.96090        0.60408      -12.33259
C        -10.27297        1.91999      -11.89641
N        -10.52596        2.99767      -11.54227
C        -10.08711        0.38660      -13.73664
N        -10.17114        0.20453      -14.88111
C         -9.33085       -1.81671      -11.83660
C         -9.62875       -2.61251      -10.61981
C        -10.24402       -3.81608      -10.56461
C        -10.87380       -4.38710      -11.70777
N        -11.45040       -4.82753      -12.61508
C        -10.45004       -4.52486       -9.34749
N        -10.58746       -5.11888       -8.36701
C         -8.55083       -2.21094      -12.87018
C         -7.90430       -3.48258      -12.91622
S         -6.32808       -3.65509      -12.24574
C         -6.31510       -5.35498      -12.47598
C         -7.43112       -5.75687      -13.18466
C         -8.31086       -4.67397      -13.48329
C         -5.26245       -6.18194      -11.93372
C         -3.93693       -5.86013      -11.71982
C         -3.20897       -6.91221      -11.08020
C         -3.98849       -8.02527      -10.82160
S         -5.58662       -7.77456      -11.40450
C         -3.58550       -9.25041      -10.15733
S         -4.66551      -10.56535       -9.93349
C         -3.50773      -11.52030       -9.10916
C         -2.30456      -10.84968       -9.01682
C         -2.34679       -9.55465       -9.62030
C         -3.90611      -12.80881       -8.66131
C         -3.34820      -13.38987       -7.58638
C         -3.77074      -14.66791       -7.09624
C         -3.75748      -15.16611       -5.79679
C         -3.23615      -14.43300       -4.62237
O         -2.59228      -13.39873       -4.70568
C         -3.62480      -15.03024       -3.33839
C         -4.37199      -16.26500       -3.26561
C         -4.91866      -16.47504       -2.01053
S         -4.21587      -15.41328       -0.86871
C         -3.29454      -14.57868       -2.06523
C         -2.32713      -13.53916       -1.57094
F         -1.61023      -12.92577       -2.53668
F         -2.95385      -12.56584       -0.86288
F         -1.41152      -14.10148       -0.73408
C         -5.97562      -17.44148       -1.55653
F         -6.58830      -18.08491       -2.57851
F         -5.49011      -18.38065       -0.70999
F         -6.96847      -16.78727       -0.89344
C         -4.52948      -17.16627       -4.40592
O         -4.65042      -18.36795       -4.23056
C         -4.35879      -16.50017       -5.70441
C         -4.67796      -17.01526       -6.95832
S         -4.36467      -15.85821       -8.17940
C         -5.24934      -18.28544       -7.37041
S         -6.40098      -19.09849       -6.41745
C         -6.53749      -20.42394       -7.48749
C         -5.80252      -20.19046       -8.63199
C         -5.06679      -18.96492       -8.56609
C         -7.36329      -21.56811       -7.17980
C         -7.62879      -22.65983       -7.98247
C         -8.49244      -23.60738       -7.35289
C         -8.86268      -23.22796       -6.07729
S         -8.16521      -21.72374       -5.67528
C         -9.70610      -23.91965       -5.13302
S        -10.42330      -25.43215       -5.49714
C        -11.19449      -25.54266       -3.96714
C        -10.90004      -24.43353       -3.19773
C        -10.05317      -23.50864       -3.86010
C        -12.00282      -26.67560       -3.67748
C        -12.62430      -26.78787       -2.49416
C        -13.45987      -27.89977       -2.12177
C        -14.58479      -28.31435       -2.73257
C        -15.17072      -29.65877       -2.50987
C        -15.40428      -30.25854       -1.31846
C        -15.08922      -29.62681       -0.07619
N        -14.81947      -29.11695        0.92701
C        -16.03276      -31.52866       -1.21386
N        -16.53953      -32.56868       -1.12489
C        -15.54611      -30.13374       -3.88154
C        -15.48918      -29.02992       -4.78297
C        -15.68241      -29.21492       -6.14539
C        -15.98309      -30.49444       -6.61061
C        -16.05889      -31.57660       -5.72701
C        -15.82384      -31.40614       -4.36040
C        -15.14345      -27.80400       -4.00655
C        -15.48266      -26.53019       -4.31485
C        -16.08058      -26.17242       -5.55913
N        -16.55575      -25.88492       -6.57693
C        -15.38159      -25.47535       -3.36179
N        -15.34777      -24.61623       -2.58412
H         -9.52929        1.76686       -9.41200
H         -9.34850        1.31515       -7.02171
H         -9.14323       -0.99773       -6.17024
H         -9.17548       -2.90797       -7.70307
H         -8.22662       -1.51059      -13.63495
H         -7.62882       -6.78473      -13.46946
H         -9.24130       -4.79555      -14.02644
H         -3.49994       -4.90721      -11.99210
H         -2.16175       -6.83431      -10.81474
H         -1.42184      -11.26853       -8.54758
H         -1.49438       -8.88730       -9.64518
H         -4.71686      -13.28744       -9.20654
H         -2.58594      -12.85618       -7.02436
H         -5.78035      -20.86078       -9.48276
H         -4.43469      -18.61635       -9.37451
H         -7.23069      -22.78687       -8.98092
H         -8.81578      -24.52571       -7.82661
H        -11.27304      -24.27233       -2.19432
H         -9.72326      -22.58259       -3.40341
H        -12.10589      -27.45016       -4.43563
H        -12.49291      -26.04829       -1.70737
H        -13.03778      -28.45087       -1.28209
H        -15.58807      -28.41068       -6.86752
H        -16.14718      -30.65446       -7.67459
H        -16.28368      -32.56867       -6.11342
H        -15.84195      -32.28416       -3.72459
