134

C        -14.13622        0.87361       -2.23562
C        -15.40953        0.34289       -1.99984
C        -15.58902       -0.75521       -1.14689
C        -14.50418       -1.32478       -0.47989
C        -13.24756       -0.76873       -0.67250
C        -13.04913        0.31387       -1.57954
C        -11.56999        0.55340       -1.71692
C        -10.93601        1.66738       -2.14401
C        -11.64401        2.83194       -2.55396
N        -12.22438        3.78322       -2.87630
C         -9.51486        1.77689       -2.11804
N         -8.35580        1.85041       -2.10826
C        -10.94192       -0.65011       -1.11169
C        -11.91829       -1.14072       -0.11932
C        -11.65539       -1.53904        1.14599
C        -10.33626       -1.45068        1.68054
N         -9.27968       -1.30726        2.13934
C        -12.68614       -1.91611        2.05167
N        -13.53774       -2.24289        2.76916
C         -9.92420       -1.34626       -1.66297
C         -9.49818       -2.73571       -1.37725
C         -8.14138       -3.07552       -1.51970
C         -7.75448       -4.39744       -1.31569
C         -8.70059       -5.38507       -0.96180
C        -10.03826       -5.07190       -0.84583
C        -10.43339       -3.75536       -1.08862
C         -8.04547       -6.66450       -0.83190
C         -6.68159       -6.50738       -1.12747
C         -6.36877       -5.04151       -1.45760
C         -5.81536       -4.91819       -2.91088
C         -6.75345       -5.38072       -4.03104
C         -5.33691       -4.47195       -0.44183
C         -5.77693       -4.45695        1.02489
C         -5.81934       -7.59204       -1.10723
C         -6.32925       -8.87087       -0.81782
C         -7.69424       -9.00804       -0.49116
C         -8.55723       -7.90638       -0.49626
C         -5.46929      -10.06307       -0.85455
S         -4.10244      -10.08539       -1.95768
C         -3.68752      -11.54863       -1.31748
C         -4.59974      -12.00750       -0.39528
N         -5.64227      -11.16503       -0.12379
C         -4.16621      -13.32478        0.21720
C         -2.82131      -13.47177       -0.49384
C         -2.60203      -12.43588       -1.37852
S         -1.13589      -12.44541       -2.14443
C         -0.67968      -13.88406       -1.27851
C         -1.70639      -14.33394       -0.44404
C          0.63202      -14.38451       -1.48385
C          0.90674      -15.68402       -1.32777
C          2.27085      -16.16297       -1.50132
C          3.11885      -16.20782       -0.39091
C          4.41486      -16.64797       -0.58557
C          4.87324      -17.02385       -1.87093
C          4.03435      -16.97763       -2.96935
C          2.72402      -16.54038       -2.77940
C          6.25419      -17.43200       -1.77905
C          6.65603      -17.36522       -0.43485
C          5.53546      -16.79659        0.44041
C          5.95130      -15.41907        1.04004
C          6.28426      -14.31724        0.03363
C          5.16969      -17.75210        1.60743
C          4.68022      -19.13910        1.20101
C          7.92081      -17.76896       -0.05202
C          8.85858      -18.11641       -1.03434
C          8.44747      -18.17582       -2.38180
C          7.13990      -17.84472       -2.75865
C         10.23765      -18.51351       -0.68659
C         10.99008      -18.09499        0.35429
C         12.12217      -18.88815        0.89976
C         13.17006      -19.39269        0.21015
C         13.28923      -19.22825       -1.19794
N         13.37114      -19.10052       -2.35311
C         14.25415      -20.05620        0.85193
N         15.13714      -20.59613        1.37319
C         11.89398      -18.88737        2.38542
C         10.92315      -17.89056        2.69471
C         10.40127      -17.77555        3.97625
C         10.89142      -18.61856        4.97362
C         11.87200      -19.57544        4.68299
C         12.36695      -19.72795        3.38377
C         10.58160      -17.17200        1.43461
C         10.17766      -15.88654        1.30791
C          9.82626      -15.08626        2.43039
N          9.50612      -14.45519        3.35085
C         10.14164      -15.23286        0.04079
N         10.14003      -14.66683       -0.97215
H        -14.03926        1.68731       -2.94616
H        -16.27288        0.77241       -2.50555
H        -16.58525       -1.17278       -1.01059
H        -14.66673       -2.19532        0.14821
H         -9.37277       -0.92016       -2.50068
H         -7.40369       -2.32897       -1.80276
H        -10.77299       -5.83342       -0.60797
H        -11.50033       -3.55376       -1.07639
H         -4.88513       -5.49582       -2.99922
H         -5.54559       -3.87431       -3.11690
H         -7.10657       -6.40498       -3.87980
H         -6.22871       -5.35588       -4.99278
H         -7.62394       -4.72370       -4.12206
H         -5.06912       -3.44459       -0.71917
H         -4.40807       -5.05556       -0.50235
H         -6.55590       -3.70814        1.19846
H         -4.92691       -4.19760        1.66567
H         -6.15027       -5.42924        1.35967
H         -4.76578       -7.43538       -1.31940
H         -8.09324       -9.99098       -0.24415
H         -9.60553       -8.03592       -0.25083
H         -4.84699      -14.13747       -0.04903
H         -4.03781      -13.24589        1.29960
H         -1.61772      -15.20008        0.20013
H          1.41594      -13.68469       -1.77243
H          0.16212      -16.42822       -1.06795
H          2.77501      -15.89973        0.59155
H          4.37785      -17.27379       -3.95434
H          2.05348      -16.48906       -3.63445
H          6.82537      -15.55613        1.68974
H          5.14854      -15.04181        1.68755
H          7.04031      -14.63312       -0.68976
H          6.67811      -13.44044        0.55875
H          5.39323      -13.99625       -0.51447
H          4.39170      -17.29270        2.23162
H          6.04332      -17.87984        2.26086
H          3.68563      -19.08952        0.74798
H          4.60632      -19.77889        2.08675
H          5.35987      -19.62716        0.49726
H          8.15038      -17.80244        1.00471
H          9.14535      -18.48528       -3.15841
H          6.84056      -17.89682       -3.80010
H         10.59283      -19.32417       -1.32173
H          9.60880      -17.07778        4.22688
H         10.49770      -18.54143        5.98567
H         12.23390      -20.22736        5.47623
H         13.08128      -20.52183        3.19561
