136

C         -1.87385        2.53417        4.49090
C         -2.48444        3.31925        3.50661
C         -3.62288        2.86665        2.82429
C         -4.20063        1.63541        3.13747
C         -3.62474        0.87529        4.14531
C         -2.43617        1.30429        4.80375
C         -1.94320        0.17544        5.66441
C         -1.13826        0.24422        6.74653
C         -0.62180        1.47968        7.22770
N         -0.21407        2.49223        7.62307
C         -0.84687       -0.90753        7.53299
N         -0.60291       -1.85264        8.16010
C         -2.69331       -1.01410        5.18234
C         -3.96694       -0.47596        4.66369
C         -5.20211       -0.98905        4.86413
C         -5.39604       -2.15932        5.65699
N         -5.56029       -3.08195        6.34158
C         -6.37506       -0.33654        4.39353
N         -7.32128        0.19735        3.98696
C         -2.14290       -2.21495        4.89542
C         -2.70402       -3.29488        4.04520
C         -2.33312       -4.62693        4.29103
C         -2.83256       -5.62798        3.45986
C         -3.74647       -5.33113        2.42614
C         -4.08375       -4.02544        2.14350
C         -3.51541       -3.01493        2.92107
C         -4.12298       -6.54735        1.74581
C         -3.40036       -7.62186        2.29113
C         -2.48643       -7.12274        3.41938
C         -0.99188       -7.34150        3.03331
C         -0.50935       -6.62463        1.76843
C         -2.79021       -7.85294        4.75145
C         -4.21502       -7.69785        5.28007
C         -3.53707       -8.91253        1.79005
C         -4.37773       -9.14297        0.69096
C         -5.12300       -8.04847        0.18096
C         -5.01207       -6.75727        0.71120
C         -4.47109      -10.48324        0.05405
S         -6.02794      -11.00399       -0.45839
C         -5.43172      -12.44146       -1.14858
C         -4.05509      -12.54688       -1.00766
C         -3.50892      -11.46004       -0.22228
S         -1.81002      -11.26928        0.28139
C         -1.22214      -12.96708        0.47401
C         -0.63635      -13.46916       -0.84139
C         -1.54137      -13.30095       -2.05967
S         -3.20427      -13.93207       -1.74218
C         -6.35772      -13.29930       -1.80379
C         -6.99302      -14.26335       -1.11682
C         -7.90773      -15.22957       -1.73885
C         -7.71406      -15.64922       -3.05752
C         -8.59693      -16.56749       -3.60069
C         -9.67082      -17.09598       -2.85721
C         -9.85161      -16.71815       -1.54008
C         -8.96276      -15.78545       -0.98375
C        -10.43859      -17.98013       -3.70774
C         -9.84145      -18.02020       -4.98442
C         -8.61928      -17.09928       -5.02991
C         -8.81068      -15.92210       -6.03400
C         -9.94746      -14.94531       -5.71901
C         -7.31875      -17.87091       -5.38302
C         -6.88749      -18.94277       -4.38248
C        -10.36295      -18.81276       -5.99726
C        -11.56748      -19.49653       -5.78031
C        -12.14769      -19.46240       -4.49245
C        -11.58133      -18.71507       -3.44991
C        -12.20567      -20.33539       -6.81760
C        -12.19134      -20.20526       -8.16263
C        -12.51213      -21.31961       -9.09428
C        -13.60759      -22.11291       -9.07160
C        -14.61901      -21.97071       -8.07496
N        -15.43116      -21.85698       -7.25478
C        -13.86843      -23.08616      -10.07620
N        -14.07769      -23.88281      -10.89747
C        -11.43676      -21.26080      -10.14067
C        -10.76369      -20.01052      -10.01942
C         -9.61438      -19.74171      -10.75076
C         -9.16574      -20.69806      -11.66137
C         -9.84982      -21.91041      -11.81852
C        -10.97845      -22.20689      -11.04620
C        -11.45491      -19.21250       -8.97114
C        -11.59219      -17.86368       -8.94749
C        -10.93119      -17.01776       -9.87455
N        -10.37287      -16.32911      -10.63603
C        -12.50813      -17.22422       -8.06019
N        -13.27334      -16.69189       -7.36879
H         -0.96040        2.89691        4.95036
H         -2.05303        4.28390        3.24342
H         -4.05158        3.47685        2.03097
H         -5.05645        1.29075        2.56548
H         -1.12768       -2.43455        5.22465
H         -1.65339       -4.88099        5.09978
H         -4.73385       -3.77911        1.31094
H         -3.71187       -1.99406        2.60919
H         -0.80559       -8.41528        2.89900
H         -0.34658       -7.01982        3.86113
H         -1.16413       -6.80354        0.91079
H          0.48931       -6.98234        1.49587
H         -0.43496       -5.54410        1.92734
H         -2.10167       -7.50235        5.53079
H         -2.59238       -8.92643        4.62972
H         -4.41442       -6.66819        5.59148
H         -4.35604       -8.34017        6.15567
H         -4.96422       -7.98730        4.53747
H         -2.97526       -9.71779        2.24918
H         -5.80169       -8.18535       -0.65900
H         -5.60414       -5.94685        0.30021
H         -2.01207      -13.62362        0.85567
H         -0.43555      -12.97327        1.23685
H         -0.36894      -14.52752       -0.72480
H          0.31046      -12.94845       -1.03914
H         -1.11457      -13.86924       -2.89324
H         -1.58452      -12.26058       -2.39944
H         -6.50335      -13.15149       -2.86969
H         -6.84036      -14.37384       -0.04605
H         -6.90224      -15.26435       -3.66575
H        -10.66707      -17.11828       -0.94715
H         -9.11136      -15.47949        0.04985
H         -8.96543      -16.31493       -7.04669
H         -7.88492      -15.33174       -6.07362
H        -10.92431      -15.43276       -5.76660
H         -9.94369      -14.12438       -6.44379
H         -9.83853      -14.48973       -4.72968
H         -6.48727      -17.15976       -5.47624
H         -7.42560      -18.34451       -6.36755
H         -6.66755      -18.51284       -3.40029
H         -5.97038      -19.42804       -4.73286
H         -7.64976      -19.71715       -4.26045
H         -9.82239      -18.88649       -6.93224
H        -13.05907      -20.02292       -4.28593
H        -12.04599      -18.70690       -2.46917
H        -12.67196      -21.21659       -6.37732
H         -9.03931      -18.82974      -10.62053
H         -8.26812      -20.50612      -12.24657
H         -9.48036      -22.64277      -12.53458
H        -11.43844      -23.18195      -11.16296
