127

C         -2.78713       -0.17043        0.32830
C         -2.45053        0.31885       -1.05303
O         -2.82525       -0.10506       -2.12616
C         -1.58785        1.48166       -0.86684
C         -1.63597        1.91486        0.47100
C         -2.56364        1.00925        1.21487
C         -3.21186        1.28743        2.36062
C         -3.00691        2.49603        3.07590
N         -2.80837        3.47867        3.67350
C         -4.18736        0.41630        2.91974
N         -4.97959       -0.29751        3.37251
C         -0.82267        2.97290        0.84732
C          0.00803        3.56937       -0.11798
C          0.03957        3.10091       -1.44051
C         -0.77202        2.04713       -1.83800
Cl         1.11810        3.81496       -2.57316
C         -2.97331       -1.43925        0.68249
C         -2.97487       -2.65740       -0.15420
C         -3.74452       -3.75709        0.27561
C         -3.71782       -4.94461       -0.48095
C         -2.95295       -5.06067       -1.63872
C         -2.16028       -3.97522       -2.04346
C         -2.15232       -2.80904       -1.27643
C         -3.15185       -6.36873       -2.16248
C         -4.00005       -7.05144       -1.29633
N         -4.35372       -6.15795       -0.30249
C         -5.23310       -6.45550        0.80654
C         -4.33867       -8.40595       -1.50539
C         -3.79309       -9.11511       -2.59944
C         -2.98181       -8.38625       -3.48946
C         -2.65682       -7.03778       -3.29140
C         -4.04364      -10.57690       -2.79622
C         -4.44836      -11.43713       -1.76578
C         -4.58060      -12.84127       -1.95210
C         -4.69215      -13.39075       -3.23444
C         -4.29270      -12.52294       -4.26099
C         -3.87039      -11.19842       -4.03239
C         -5.12603      -14.86756       -3.48135
C         -3.95591      -15.70935       -4.07853
C         -3.28540      -15.31201       -5.26231
C         -2.28390      -16.06780       -5.88537
C         -1.97196      -17.31465       -5.38642
C         -2.55544      -17.71913       -4.18780
C         -3.46690      -16.88701       -3.49537
C         -6.43456      -15.37404       -3.21395
C         -6.83011      -16.94571       -3.37282
C         -6.13390      -17.90341       -4.13135
C         -6.44836      -19.28449       -4.16092
C         -7.62115      -19.74967       -3.59911
C         -8.41546      -18.84093       -2.92758
C         -7.97948      -17.50394       -2.74884
C         -7.63695      -14.44079       -2.67110
C         -9.00447      -14.69143       -2.88111
C        -10.05196      -13.97123       -2.21220
C         -9.79429      -12.93278       -1.30131
C         -8.46180      -12.65384       -1.11751
C         -7.48279      -13.32354       -1.86038
C        -10.81595      -12.08123       -0.65105
C        -12.07360      -12.59407       -0.32499
C        -13.03699      -11.74782        0.24678
C        -12.78844      -10.41041        0.55339
C        -11.51749       -9.88791        0.26355
C        -10.56487      -10.72250       -0.34579
C        -13.98610       -9.87113        1.11897
C        -14.95040      -10.87777        1.08860
N        -14.33711      -12.01004        0.60899
C        -14.94301      -13.31676        0.48623
C        -16.27038      -10.66677        1.51487
C        -16.63752       -9.41312        2.00968
C        -15.66180       -8.40661        2.09199
C        -14.34514       -8.61349        1.64581
C        -17.99083       -9.17799        2.54200
C        -18.22356       -8.40822        3.74222
C        -19.54364       -8.33909        4.10677
S        -20.20076       -7.50572        5.50358
C        -19.64187       -5.82053        5.17057
S        -20.52438       -9.22811        3.05371
C        -19.18459       -9.72937        2.05821
C        -19.55927      -10.60748        0.99060
C        -18.99408      -10.63165       -0.22123
H         -0.77513        3.34373        1.86555
H          0.65882        4.39132        0.17712
H         -0.74715        1.64563       -2.84542
H         -3.09498       -1.68644        1.74131
H         -4.34827       -3.69014        1.17544
H         -1.54277       -4.04279       -2.93396
H         -1.48443       -2.01850       -1.60193
H         -5.89302       -7.28504        0.54628
H         -5.84472       -5.57644        1.02373
H         -4.61455       -6.71692        1.66850
H         -5.00852       -8.89377       -0.80774
H         -2.54262       -8.85502       -4.36579
H         -2.00474       -6.52521       -3.99299
H         -4.72394      -11.03952       -0.79110
H         -4.84345      -13.44774       -1.08355
H         -4.29103      -12.81630       -5.29969
H         -3.45418      -10.66450       -4.88240
H         -3.51776      -14.40150       -5.78728
H         -1.79315      -15.68518       -6.77846
H         -1.28556      -17.95878       -5.92996
H         -2.33252      -18.71251       -3.80665
H         -3.88697      -17.24944       -2.56080
H         -5.29710      -17.63494       -4.75547
H         -5.77780      -19.98219       -4.65939
H         -7.91321      -20.79284       -3.69514
H         -9.37215      -19.16593       -2.52198
H         -8.61856      -16.91954       -2.09612
H         -9.31965      -15.45571       -3.58797
H        -11.08021      -14.23025       -2.45423
H         -8.12912      -11.85143       -0.46229
H         -6.60714      -12.74059       -1.86579
H        -12.30959      -13.63422       -0.51511
H        -11.27839       -8.85044        0.47714
H         -9.60939      -10.26572       -0.59754
H        -15.91690      -13.33805        0.97499
H        -14.28760      -14.04515        0.97191
H        -15.05063      -13.54272       -0.57763
H        -16.98812      -11.47681        1.46994
H        -15.90344       -7.43301        2.51431
H        -13.61210       -7.81541        1.71900
H        -17.43352       -7.94867        4.32365
H        -19.98480       -5.16396        5.97434
H        -20.05606       -5.45974        4.22499
H        -18.55039       -5.77281        5.12931
H        -20.40127      -11.27729        1.16587
H        -18.17562       -9.98409       -0.51311
H        -19.36462      -11.32803       -0.96955
