102

C          2.36408       -4.58780        5.62053
C          1.56163       -5.16450        6.56465
S          2.51075       -6.12740        7.64627
C          3.97849       -5.76228        6.81765
C          3.72148       -4.95775        5.74165
C          4.54232       -4.38056        4.71087
O          5.74800       -4.29020        4.68816
C          3.50538       -3.81493        3.74413
C          2.21488       -3.68493        4.50723
C          1.24174       -2.75828        4.34695
C          0.17896       -2.62747        5.28709
N         -0.67762       -2.52605        6.06279
C          1.27251       -1.78946        3.30151
N          1.31000       -1.01375        2.44531
C          3.72785       -3.60610        2.43701
C          4.96217       -3.89692        1.68049
C          5.23776       -5.36039        1.38764
C          6.15508       -6.14688        2.10243
C          6.34797       -7.49675        1.80466
C          5.68527       -8.07742        0.73747
C          4.81393       -7.31382       -0.02111
C          4.57792       -5.97873        0.31124
F          3.73516       -5.26464       -0.45116
F          4.20604       -7.85530       -1.08569
F          5.90464       -9.36240        0.42665
F          7.19125       -8.23098        2.54418
F          6.91842       -5.61435        3.06009
C          5.73465       -2.92790        1.07622
C          5.47652       -1.41764        1.10777
C          4.90735       -0.70371        2.18212
C          4.69564        0.68292        2.13934
C          5.07319        1.42003        1.03542
C          5.65127        0.77089       -0.03531
C          5.84072       -0.61743       -0.00447
F          6.38109       -1.17501       -1.10056
F          6.02179        1.47315       -1.11696
F          4.88152        2.74698        1.00351
F          4.12374        1.29868        3.18559
F          4.54575       -1.31604        3.31648
C          6.83642       -3.44916        0.22883
C          8.16008       -3.28697        0.35511
C          9.11284       -3.98014       -0.48247
C         10.37504       -3.57060       -0.30671
C         10.48932       -2.45841        0.62219
S          8.96324       -2.23925        1.48607
C         11.54470       -1.62662        0.70078
C         12.78445       -1.75975       -0.04148
C         13.53755       -0.65306       -0.03285
C         12.94025        0.44529        0.69978
S         11.54059       -0.10351        1.58467
C         13.42755        1.69074        0.60466
C         12.83032        2.91883        1.00850
C         13.45991        4.10699        1.32577
C         12.71732        5.23883        0.81347
C         11.42659        4.87143        0.41424
S         11.16002        3.23801        0.91281
C         10.60918        5.76679       -0.31073
O          9.29875        5.55212       -0.73308
C          8.62515        4.36370       -0.34630
C         11.21849        6.92556       -0.85905
C         12.49369        7.29220       -0.43818
C         13.17494        6.54209        0.53248
O         14.44774        6.87234        0.98796
C         14.55274        8.20061        1.50330
S         13.06918        8.63950       -1.34005
C         11.73841        8.62210       -2.41781
C         10.75932        7.78820       -1.92166
C         11.85050        9.41363       -3.59377
C         10.85983       10.08879       -4.19276
C          9.45889       10.24265       -3.63242
O          8.66520        9.41236       -3.24603
C          9.25055       11.65266       -3.80656
C          8.37073       12.54598       -3.26311
S          8.74897       14.13751       -3.80647
C         10.07138       13.59220       -4.78736
C         10.20128       12.23432       -4.68188
C         11.09972       11.21470       -5.14996
C         11.87274       11.20283       -6.25771
C         11.93539       12.32895       -7.12285
N         11.98136       13.26449       -7.81218
C         12.60489       10.04442       -6.65494
N         13.20386        9.10066       -6.95952
H          0.49253       -5.09919        6.71755
H          4.92617       -6.16392        7.15339
H          2.92915       -3.25494        1.78388
H          6.49096       -4.06574       -0.60167
H          8.82917       -4.75207       -1.18482
H         11.20529       -3.97149       -0.87015
H         13.06425       -2.65140       -0.58359
H         14.46402       -0.55553       -0.58262
H         14.33549        1.82633        0.01788
H         14.51421        4.17538        1.56523
H          8.60063        4.25006        0.74191
H          9.06173        3.49769       -0.85354
H          7.58473        4.42593       -0.67783
H         13.59194        8.63892        1.79817
H         15.04861        8.83346        0.76072
H         15.19725        8.17683        2.38686
H          9.80067        7.62823       -2.39734
H         12.87227        9.57092       -3.94375
H          7.57535       12.35766       -2.55364
H         10.66386       14.31289       -5.33004
