84

C          3.37774        0.91258        6.78129
C          2.14015        1.18667        7.34919
F          1.70955        0.44151        8.37530
C          1.34957        2.22630        6.87898
C          1.78911        2.99788        5.80171
C          3.03450        2.74638        5.20458
C          3.85141        1.69612        5.72230
C          5.12779        1.45968        5.18609
C          5.59455        2.27179        4.16605
C          4.74101        3.23219        3.60434
C          3.47915        3.50009        4.10833
C          5.35244        3.80334        2.38538
O          4.88162        4.65882        1.66643
C          6.62426        3.02654        2.18568
C          6.89434        2.34487        3.45865
C          8.10256        2.05625        3.99983
C          9.32147        2.40529        3.34993
N         10.31268        2.68168        2.81328
C          8.24508        1.42685        5.26832
N          8.35233        0.88829        6.29070
C          7.09375        2.86892        0.93427
C          8.07150        1.88471        0.44725
C          9.00953        2.19187       -0.55378
C          9.99336        1.27680       -1.00018
F         10.82879        1.72086       -1.95397
C         10.15898       -0.04010       -0.51254
C          9.17814       -0.42184        0.45205
C          8.10833        0.53990        0.92210
N          7.26226       -0.02968        1.79989
S          7.76362       -1.58278        2.04755
N          9.06835       -1.62552        1.04278
C         11.19553       -0.97564       -0.95717
C         11.80445       -1.89500       -0.11774
N         12.70852       -2.81613       -0.50447
C         13.06666       -2.80443       -1.79243
N         12.55755       -1.95789       -2.70833
C         11.64935       -1.05913       -2.26192
C         13.97699       -3.83513       -2.26728
C         13.89652       -4.36280       -3.57430
C         14.71721       -5.39769       -4.05124
F         14.45048       -5.82912       -5.29439
C         15.77053       -5.98603       -3.32382
C         15.90826       -5.50499       -1.98970
C         14.99402       -4.40957       -1.44781
N         15.29177       -4.09502       -0.17514
S         16.55182       -5.04904        0.29867
N         16.80380       -5.92980       -1.07989
C         16.62548       -7.08594       -3.80031
C         17.03861       -7.32437       -5.05507
C         17.49314       -8.71125       -5.40924
O         17.94978       -9.56306       -4.67161
C         17.15847       -8.87070       -6.83963
C         17.20331      -10.04419       -7.57505
C         16.70477      -10.02382       -8.88530
C         16.13092       -8.82544       -9.40539
C         15.59150       -8.82848      -10.69812
C         15.64503       -9.98007      -11.47381
C         16.22275      -11.14533      -10.98916
C         16.74496      -11.17117       -9.69503
F         15.13356       -9.96277      -12.71175
C         16.11001       -7.65205       -8.62937
C         16.66555       -7.66412       -7.35773
C         16.83966       -6.61231       -6.32532
C         17.00250       -5.28847       -6.55527
C         17.42525       -4.38764       -5.53208
N         17.75909       -3.64662       -4.70210
C         16.79904       -4.69952       -7.83387
N         16.60180       -4.22226       -8.87191
H          3.96527        0.09336        7.18731
H          0.39500        2.42910        7.35434
H          1.15506        3.80535        5.44073
H          5.72488        0.64087        5.57764
H          2.86079        4.26640        3.64933
H          6.66729        3.48964        0.14379
H          9.01307        3.18478       -1.00497
H         11.58326       -1.93921        0.94589
H         11.27492       -0.39510       -3.03757
H         13.14327       -3.96968       -4.25934
H         16.85337       -7.82960       -3.03266
H         17.59857      -10.95269       -7.12664
H         15.13038       -7.93990      -11.12118
H         16.25997      -12.02709      -11.62090
H         17.18775      -12.09427       -9.32590
H         15.64242       -6.75991       -9.03510
