94

C          7.47267       -6.83018       -5.23225
C          6.97073       -8.05676       -5.64506
F          7.71583       -8.83815       -6.43745
C          5.70439       -8.47857       -5.26313
C          4.93499       -7.68053       -4.41216
C          5.41927       -6.44110       -3.96172
C          6.69779       -5.99542       -4.41893
C          7.16443       -4.71556       -4.08587
C          6.36282       -3.89293       -3.31695
C          5.17916       -4.39226       -2.74932
C          4.67646       -5.64013       -3.07614
C          4.64818       -3.41715       -1.76126
O          3.66671       -3.54846       -1.06283
C          5.65164       -2.29509       -1.75019
C          6.45425       -2.45912       -2.96592
C          6.79484       -1.49524       -3.85168
C          6.34221       -0.14901       -3.72909
N          5.91547        0.93153       -3.75189
C          7.40049       -1.80056       -5.10431
N          7.87650       -2.06316       -6.13242
C          5.88021       -1.58701       -0.63386
C          7.10373       -0.87743       -0.43332
C          7.38896        0.47256       -0.53452
O          6.39696        1.33109       -0.87475
C          6.67454        2.70392       -0.64225
C          8.77061        0.75875       -0.32182
C          9.50465       -0.36208        0.00562
S          8.49800       -1.74764        0.08999
C         10.88815       -0.45265        0.30986
C         11.81110       -0.89061       -0.55755
C         13.20318       -1.05277       -0.20670
C         13.87206       -1.81888       -1.07626
C         13.03888       -2.32752       -2.15521
S         11.52352       -1.43528       -2.19972
C         13.31335       -3.41695       -2.89555
C         14.42374       -4.31320       -2.63592
C         14.44656       -5.39426       -3.42043
C         13.40202       -5.40682       -4.41595
S         12.30215       -4.05995       -4.18902
C         13.28435       -6.26427       -5.44112
C         14.30505       -7.20706       -5.75653
C         14.46657       -8.54199       -5.43420
O         13.58966       -9.15766       -4.59902
C         14.12360      -10.31365       -3.95725
C         15.59406       -9.12690       -6.09710
C         16.31240       -8.22219       -6.85811
S         15.65808       -6.64643       -6.65060
C         17.50678       -8.45134       -7.60694
C         17.86362       -7.79123       -8.72157
C         19.31545       -7.79500       -9.09921
O         20.16247       -8.61238       -8.80652
C         19.52334       -6.52379       -9.82389
C         20.73208       -6.00900      -10.26005
C         20.72681       -4.74708      -10.86991
C         19.50832       -4.00923      -10.96457
C         19.51760       -2.74136      -11.55768
C         20.69836       -2.22531      -12.07711
C         21.88647       -2.93987      -12.00754
C         21.90451       -4.19430      -11.39585
F         20.68579       -1.02238      -12.66566
C         18.30434       -4.55930      -10.49235
C         18.30393       -5.84352       -9.97464
C         17.22057       -6.75409       -9.53229
C         15.95581       -6.77345      -10.02818
C         15.10356       -7.90281       -9.85456
N         14.42177       -8.83877       -9.75605
C         15.42552       -5.72104      -10.82250
N         14.99667       -4.83967      -11.44800
H          8.46317       -6.53332       -5.56716
H          5.32605       -9.42818       -5.62825
H          3.94675       -8.02916       -4.11851
H          8.12892       -4.37400       -4.45406
H          3.73068       -5.97410       -2.65683
H          5.21102       -1.67552        0.22068
H          6.67604        2.90523        0.43355
H          5.87064        3.28933       -1.09815
H          7.61113        3.03507       -1.10214
H          9.23350        1.73283       -0.41450
H         11.18430       -0.17696        1.31845
H         13.64173       -0.63645        0.68945
H         14.91766       -2.06760       -0.96491
H         15.12385       -4.17437       -1.82560
H         15.16178       -6.19688       -3.30928
H         12.46670       -6.16723       -6.15136
H         13.43585      -10.61029       -3.16018
H         15.09536      -10.10316       -3.49467
H         14.20392      -11.14868       -4.66086
H         15.86907      -10.17232       -6.03535
H         18.21253       -9.15748       -7.16758
H         21.64622       -6.58227      -10.13253
H         18.60994       -2.14924      -11.64381
H         22.79087       -2.51712      -12.43337
H         22.84350       -4.74263      -11.34859
H         17.39307       -3.97154      -10.55536
