67

C         -0.64933       -2.79851        2.83383
C         -0.27855       -2.70653        1.49812
C         -0.33446       -1.36774        1.06161
C         -0.73524       -0.51949        2.07370
S         -1.05220       -1.26296        3.52616
C         -0.76105        0.80072        1.57843
C         -0.38085        0.78822        0.25824
C         -0.08988       -0.58675       -0.15221
C          0.31004       -1.02961       -1.36199
C          0.50474       -0.15100       -2.46257
N          0.66414        0.55607       -3.36715
C          0.55624       -2.40949       -1.60156
N          0.75775       -3.53977       -1.79734
C         -0.37962        2.08750       -0.28936
C         -0.75416        3.05872        0.64909
S         -1.11404        2.30081        2.18641
C         -0.86634        4.52434        0.51235
C         -1.26889        5.41056        1.52165
N         -1.39328        6.77946        1.46154
C         -1.08549        7.49458        0.33382
C         -0.66575        6.72892       -0.79303
C         -0.56197        5.21242       -0.69405
N         -0.16178        4.66648       -1.85752
S          0.07367        5.88664       -2.94135
N         -0.32083        7.19176       -2.00909
C         -1.21216        8.94950        0.34803
C         -1.52349        9.74821       -0.76811
N         -1.62967       11.12007       -0.85534
C         -1.40756       11.89960        0.23860
C         -1.14309       11.25957        1.47193
C         -1.03381        9.74234        1.51934
N         -0.73874        9.30797        2.75946
S         -0.66267       10.62735        3.75117
N         -0.96721       11.84322        2.67190
C         -1.43952       13.35491        0.10709
C         -0.36683       14.11402       -0.16684
C         -0.38155       15.54819       -0.35586
C          0.79185       16.05639       -0.77095
C          1.83219       15.05548       -0.94603
S          1.24523       13.48768       -0.36974
C          3.03117       15.20063       -1.54470
C          3.57581       16.38028       -2.19686
C          4.57319       16.09553       -3.05472
C          4.86746       14.67703       -3.13372
S          4.13566       13.84408       -1.79292
C          5.54277       14.07205       -4.12407
C          5.71998       12.64487       -4.30914
C          4.77836       11.68057       -4.42178
C          5.27781       10.33398       -4.68060
C          6.61416       10.22720       -4.79486
Si         7.44385       11.88873       -4.56106
H         -0.70552       -3.68812        3.44714
H          0.00618       -3.57509        0.91481
H         -0.11313        2.32209       -1.31113
H         -1.53190        5.03556        2.51127
H         -1.72651        9.27387       -1.73021
H         -2.42229       13.79656        0.21861
H         -1.27144       16.14209       -0.19447
H          0.94193       17.10699       -0.97936
H          3.18389       17.37802       -2.05045
H          5.07248       16.83077       -3.67306
H          5.95947       14.68598       -4.91954
H          3.70978       11.85449       -4.34992
H          4.59629        9.49738       -4.77733
H          7.17599        9.32669       -4.98919
H          8.10087       12.42132       -5.78060
H          8.28953       11.97321       -3.34476
