122

C          7.21788      -10.75669       -4.10331
S          5.81768      -10.79463       -5.05256
C          5.33781       -9.24055       -4.51246
C          3.95399       -8.77371       -4.92123
C          3.84221       -8.28475       -6.35677
C          6.30699       -8.64946       -3.68707
C          7.40484       -9.56501       -3.42161
C          8.61716       -9.38615       -2.54505
C          8.53448      -10.18944       -1.25270
C          6.09660       -7.30642       -3.19732
C          6.82290       -6.51192       -2.39803
C          6.47941       -5.12210       -1.97776
N          7.24231       -4.46454       -1.12596
C          6.61206       -3.26769       -0.98968
C          5.41934       -3.23406       -1.78929
C          4.76522       -1.91288       -1.66010
O          3.75929       -1.49090       -2.18415
C          5.67920       -1.21397       -0.72828
C          6.76698       -2.10138       -0.37173
N          7.61784       -1.45911        0.46484
C          7.07548       -0.27959        0.59314
C          5.81790       -0.03082       -0.14552
C          5.27386       -4.36941       -2.45402
C          4.28854       -4.72216       -3.41305
C          3.00207       -4.96134       -3.11503
C          2.05837       -5.42606       -4.11970
C          2.01682       -4.78094       -5.31007
C          1.14993       -5.23746       -6.37133
C          1.01121       -4.82169       -7.66292
C          1.82958       -3.76907       -8.42670
C          3.34821       -3.66276       -8.05455
N          4.13088       -4.89727       -8.08214
C          1.72951       -3.74611       -9.98099
N          2.05803       -4.99103      -10.66944
C         -0.17712       -5.56493       -8.12924
C         -0.93206       -5.47951       -9.23668
C         -2.21386       -6.28187       -9.43692
C         -2.43799       -7.35188       -8.38188
C         -1.68382       -7.45772       -7.27522
C         -0.61101       -6.51527       -7.09950
C          0.19557       -6.31944       -6.05213
C          0.25844       -6.99545       -4.77774
C          1.15243       -6.56277       -3.86830
C         -3.43361       -5.38468       -9.51507
C         -3.56082       -4.16833       -8.95483
C         -4.80409       -3.38626       -9.13613
N         -5.98849       -3.89916       -9.37270
C         -6.79068       -2.80550       -9.45086
C         -6.01807       -1.60338       -9.28450
C         -6.91584       -0.42772       -9.39321
O         -6.65243        0.75300       -9.36539
C         -8.24050       -1.06551       -9.54243
C         -8.07942       -2.49620       -9.56956
N         -9.29449       -3.09257       -9.67760
C        -10.11396       -2.07803       -9.70934
C         -9.51776       -0.72691       -9.63966
C         -4.74603       -1.89024       -9.01338
C         -3.63667       -1.04758       -8.68320
C         -3.76923        0.05657       -7.92936
C         -2.67807        0.89452       -7.55615
S         -2.91659        2.58731       -7.72679
C         -1.35110        2.98022       -7.16034
C         -0.97837        4.44541       -7.12769
C         -0.15834        4.88670       -5.92455
C         -0.64641        1.82862       -6.84833
C         -1.42546        0.61128       -7.01325
C         -0.90973       -0.77800       -6.69429
C         -0.72263       -1.07109       -5.21249
C          0.70879        1.84203       -6.38728
C          1.75081        2.26419       -7.11405
H          7.85932      -11.62693       -4.07935
H          3.60992       -7.98304       -4.25274
H          3.23958       -9.59339       -4.77257
H          4.53257       -7.46179       -6.56015
H          2.82407       -7.92697       -6.54636
H          4.03797       -9.08544       -7.07681
H          8.80865       -8.34576       -2.30525
H          9.50709       -9.70444       -3.10274
H          7.58060      -10.03687       -0.73710
H          9.34219       -9.89824       -0.57328
H          8.64207      -11.26125       -1.45353
H          5.17785       -6.88429       -3.56182
H          7.75718       -6.82021       -1.95699
H          7.49956        0.52894        1.20448
H          5.22458        0.85874       -0.19277
H          4.65914       -4.86102       -4.42959
H          2.63203       -4.88312       -2.09540
H          2.61541       -3.89632       -5.45914
H          1.39401       -2.80840       -8.11345
H          3.46258       -3.20706       -7.07007
H          3.84152       -2.94092       -8.71779
H          3.54663       -5.67503       -7.76959
H          4.40388       -5.12559       -9.03380
H          2.39247       -2.96303      -10.37074
H          0.73092       -3.41650      -10.27879
H          2.03164       -4.84213      -11.67762
H          3.00683       -5.27959      -10.45071
H         -0.69576       -4.80653      -10.04542
H         -2.10773       -6.79258      -10.40324
H         -3.25499       -8.05006       -8.54174
H         -1.87001       -8.22390       -6.53248
H         -0.38545       -7.84312       -4.57698
H          1.23904       -7.06948       -2.91075
H         -4.27206       -5.79855      -10.07526
H         -2.76988       -3.72643       -8.36200
H        -11.20817       -2.17169       -9.77599
H        -10.00190        0.22870       -9.64573
H         -2.66230       -1.35432       -9.05381
H         -4.75553        0.38294       -7.60425
H         -1.89295        5.05415       -7.12562
H         -0.44305        4.69818       -8.05080
H         -0.56322        4.49532       -4.98648
H         -0.14501        5.98029       -5.86297
H          0.88525        4.57380       -6.00818
H          0.03812       -0.92666       -7.22337
H         -1.58843       -1.54382       -7.07856
H         -0.05932       -0.35730       -4.72039
H         -0.28002       -2.06573       -5.08844
H         -1.67947       -1.05881       -4.68115
H          0.89478        1.48323       -5.37845
H          1.62213        2.64208       -8.12287
H          2.75055        2.26210       -6.69386
