128

C         -8.84303        7.31127       -1.64029
C         -9.16344        8.52537       -2.14699
C         -8.77102        9.74684       -1.52599
N         -8.45387       10.73954       -1.01317
C         -9.84419        8.67020       -3.38890
N        -10.41050        8.76441       -4.40417
C         -7.99002        7.05859       -0.44908
C         -7.41752        5.79186       -0.57657
C         -6.54667        5.24469        0.35708
C         -6.28533        5.99421        1.52931
C         -6.90520        7.24263        1.68584
C         -7.75837        7.80008        0.70345
S         -6.50152        7.95797        3.20384
C         -5.51179        6.64489        3.64600
C         -5.47378        5.67634        2.67115
C         -7.96826        5.09511       -1.75799
O         -7.61150        4.01471       -2.17272
C         -9.05876        5.99234       -2.27290
C        -10.12711        5.55853       -2.96166
C        -10.38020        4.23286       -3.45415
C         -9.94971        3.89992       -4.72467
S        -10.48938        2.35994       -5.19979
C        -11.28386        2.12713       -3.71629
C        -11.13192        3.16066       -2.80748
C        -11.75615        2.97745       -1.51301
C        -11.79596        4.15135       -0.55361
C        -13.03003        5.01198       -0.77252
C        -12.40562        1.70803       -1.22552
C        -12.54705        0.85457       -2.31981
N        -12.01009        1.02165       -3.53147
S        -13.54082       -0.49083       -2.04960
C        -13.68580       -0.11068       -0.40492
C        -12.97965        1.02609       -0.03971
C        -12.87838        1.37808        1.37294
C        -13.87048        1.10470        2.27220
C        -13.84002        1.72372        3.58561
C        -14.76956        1.76136        4.57998
C        -16.00798        0.89067        4.74863
C        -15.58988       -0.33722        5.61165
N        -16.64811       -1.32585        5.82619
C        -17.25285        1.62579        5.31187
N        -18.47233        0.81520        5.41752
C        -14.27472        2.82135        5.46718
C        -14.91190        3.68572        6.27682
C        -14.20960        4.91974        6.82850
C        -12.68845        4.83008        6.78221
C        -12.05816        3.98965        5.94082
C        -12.88636        3.13534        5.13227
C        -12.65720        2.52785        3.96246
C        -11.50686        2.54935        3.10073
C        -11.62135        1.97771        1.88603
C        -14.78143        5.30207        8.16648
C        -14.32662        4.93211        9.37583
C        -14.84611        5.38316       10.63641
C        -15.37864        6.65730       10.75307
S        -15.71782        7.07999       12.36142
C        -15.14322        5.58337       12.91400
C        -14.78393        4.68313       11.91894
C        -14.41406        3.35295       12.35876
C        -14.21238        2.23773       11.34175
C        -15.49188        1.45676       11.05595
C        -14.25510        3.11750       13.78581
C        -14.58097        4.19054       14.61271
N        -15.06522        5.37182       14.22670
S        -14.30375        3.93163       16.25964
C        -13.71365        2.36866       15.95725
C        -13.80663        1.98270       14.63804
C        -13.49919        0.65396       14.16730
C        -12.70553       -0.35301       14.57871
C        -11.77468       -0.65812       15.67537
C        -12.05904       -0.68978       17.00329
C        -11.11806       -1.08849       17.99725
N        -10.34388       -1.39345       18.80835
C        -13.38719       -0.51383       17.48167
N        -14.47634       -0.39647       17.87489
C        -10.69356       -1.52296       15.10143
C        -11.18291       -2.05828       13.90883
C        -12.45139       -1.41405       13.53405
O        -13.10160       -1.65527       12.53878
C        -10.53880       -3.04660       13.17603
C         -9.30314       -3.52349       13.66574
C         -8.76783       -2.94349       14.82530
C         -9.44118       -1.92717       15.55500
S         -7.23813       -3.64418       15.21679
C         -7.30423       -4.72319       13.89937
C         -8.44884       -4.55909       13.15659
H         -6.11970        4.25656        0.20928
H         -8.22908        8.75798        0.89544
H         -5.00438        6.64397        4.60128
H         -4.89820        4.76369        2.77269
H        -10.94176        6.24612       -3.17303
H         -9.36254        4.49251       -5.41137
H        -10.89584        4.75956       -0.65456
H        -11.78265        3.84599        0.48241
H        -13.07429        5.40614       -1.79247
H        -13.02208        5.86066       -0.08085
H        -13.94344        4.43600       -0.59172
H        -14.25360       -0.78362        0.22310
H        -14.77338        0.57001        2.00331
H        -16.29463        0.50892        3.75898
H        -15.22415        0.00289        6.58785
H        -14.76015       -0.86182        5.12202
H        -17.50615       -0.81162        6.07528
H        -16.42203       -1.89148        6.64317
H        -17.47346        2.49748        4.68527
H        -17.05420        1.96737        6.32889
H        -18.68514        0.38597        4.51665
H        -19.26286        1.41464        5.65382
H        -15.97809        3.64881        6.44069
H        -14.46544        5.75388        6.15661
H        -12.10774        5.52126        7.38620
H        -10.97886        3.94583        5.86116
H        -10.58570        3.01517        3.42804
H        -10.75909        1.96200        1.22409
H        -15.65413        5.94904        8.09676
H        -13.45545        4.28670        9.40346
H        -15.53813        7.39570        9.97900
H        -13.41000        1.57263       11.66460
H        -13.84426        2.62023       10.39411
H        -16.00489        1.14340       11.97065
H        -15.25890        0.55839       10.47318
H        -16.19518        2.05606       10.46657
H        -13.38141        1.83303       16.82197
H        -14.01702        0.43590       13.23592
H        -10.98218       -3.44486       12.26777
H         -8.97566       -1.52541       16.44901
H         -6.50121       -5.42778       13.72792
H         -8.67303       -5.15644       12.28031
