116

C          0.42692        2.52172       -4.36579
C         -0.69517        2.64410       -5.11047
C         -0.67880        3.18905       -6.42982
N         -0.65625        3.65984       -7.49032
C         -1.93201        2.08977       -4.67775
N         -2.94129        1.63370       -4.33493
C          1.79513        2.64982       -4.90411
C          2.55557        1.59176       -4.37471
C          3.89565        1.42153       -4.66046
C          4.52763        2.41698       -5.41960
C          3.78466        3.54323       -5.89069
C          2.40084        3.63038       -5.66633
C          4.46021        4.58751       -6.53490
C          5.83977        4.52751       -6.73031
C          6.55669        3.40916       -6.31378
C          5.90512        2.35788       -5.66701
C          1.77515        0.89309       -3.32104
O          2.07651       -0.10974       -2.71378
C          0.58138        1.79406       -3.10642
C          0.32527        2.12309       -1.82347
C         -0.17966        3.41685       -1.31546
C         -1.53127        3.67963       -1.12065
C         -2.59704        2.67687       -1.16331
O         -2.44110        1.50632       -0.87344
S         -4.12953        3.46259       -1.37993
C         -3.48949        4.81041       -0.46750
O         -4.17280        5.45315        0.30166
C         -2.02239        4.92095       -0.65738
C         -1.17074        6.00565       -0.34342
C          0.20663        5.72771       -0.51565
C          0.67932        4.45915       -0.92820
C          2.14561        4.34503       -0.80089
O          2.79751        3.36140       -1.09399
S          2.84085        5.78769       -0.11517
C          1.34890        6.65345       -0.37874
O          1.31438        7.84845       -0.59596
C         -1.71266        7.28282        0.20930
S         -0.84269        8.17180        1.43573
C         -2.94422        7.90867       -0.03510
C         -3.18809        8.99915        0.83253
C         -4.25261        9.94943        1.19934
C         -5.59264        9.82888        1.00341
C         -6.22255        8.66660        0.26132
N         -6.96861        9.10229       -0.91531
C         -6.62306       10.79499        1.56109
N         -7.54156       10.17263        2.50824
C         -2.04897        9.30374        1.53662
C         -2.25411       10.50730        2.23664
S         -1.32304       11.49491        3.18764
C         -3.54097       10.94238        2.01662
C         -3.75144       12.19463        2.63467
C         -2.64941       12.60892        3.39210
C         -2.58343       13.76849        4.23048
C         -1.48555       14.13275        4.91720
C         -1.43058       15.34177        5.74338
C         -1.81203       15.36229        7.09424
C         -2.24142       14.21730        7.91140
O         -2.14545       13.04836        7.59234
S         -2.85857       14.73385        9.46535
C         -2.31365       16.36856        9.20139
O         -2.42962       17.25918       10.02402
C         -1.77333       16.54197        7.84641
C         -1.31971       17.75184        7.30673
C         -1.03533       17.74675        5.93830
C         -1.03584       16.56807        5.18828
C         -0.54740       16.79407        3.81896
O         -0.24090       15.92392        3.02682
S         -0.38391       18.50008        3.47240
C         -0.80739       18.93158        5.10819
O         -0.99586       20.07582        5.48002
C         -1.08842       18.92768        8.16710
C          0.07991       19.26134        8.75053
C          0.40541       20.34008        9.71936
C         -0.37541       21.40878       10.06806
C          0.08765       22.43217       10.94294
N          0.43481       23.28287       11.65158
C         -1.68005       21.62056        9.56052
N         -2.75666       21.80611        9.14964
C          1.82734       20.12518       10.15673
C          2.39353       19.13295        9.35207
C          1.35523       18.48609        8.52830
O          1.49984       17.48662        7.85227
C          3.74325       18.80200        9.39211
C          4.56435       19.42348       10.34652
C          3.98913       20.32954       11.27524
C          2.62344       20.68415       11.15755
C          4.79912       20.85177       12.30186
C          6.15390       20.52032       12.39211
C          6.72878       19.68533       11.44023
C          5.94000       19.14133       10.42422
H          4.44795        0.59566       -4.22142
H          1.84266        4.49048       -6.02529
H          3.92466        5.47600       -6.86381
H          6.35618        5.35891       -7.20369
H          7.63073        3.36260       -6.47542
H          6.49135        1.50447       -5.33200
H          0.74909        1.48860       -1.03925
H         -3.65552        7.53306       -0.75570
H         -6.88793        8.10531        0.92735
H         -5.50474        7.92734       -0.07307
H         -6.39928        9.75678       -1.44808
H         -7.80611        9.60130       -0.62591
H         -7.19490       11.24200        0.74027
H         -6.17900       11.63643        2.07838
H         -8.11629        9.47662        2.03684
H         -8.19453       10.87360        2.85543
H         -4.65296       12.78729        2.59131
H         -3.49306       14.36099        4.29920
H         -0.55239       13.57915        4.85393
H         -2.00745       19.47548        8.34348
H          4.14284       18.06048        8.70644
H          2.22651       21.38967       11.88027
H          4.37968       21.51766       13.05471
H          6.76082       20.91811       13.20295
H          7.78833       19.44508       11.49636
H          6.41187       18.48470        9.69571
