72

C          8.85857        8.30845       -7.15407
O          9.48160        9.05276       -8.10481
C          9.20839       10.35344       -7.82544
C          8.40942       10.45103       -6.70928
C          8.17712        9.12203       -6.27643
C          7.43036        8.64916       -5.16183
C          6.43653        9.31527       -4.54973
C          5.69077        8.80933       -3.41594
C          6.24873        8.10070       -2.42183
C          5.48675        7.63725       -1.31664
S          5.44595        8.59207        0.11527
C          4.57304        7.41001        0.95958
N          4.23018        7.60826        2.33986
O          3.70349        6.64514        2.92265
O          4.47022        8.70571        2.85825
C          4.27602        6.30983        0.18430
C          4.80109        6.44013       -1.14222
C          4.65055        5.47503       -2.19444
C          4.61957        4.13905       -2.04310
C          4.33921        3.25557       -3.18233
S          2.54975        3.08567       -3.36878
C          2.42574        1.39805       -3.81334
C          1.44717        0.54413       -3.36009
S          1.68196       -1.04784       -3.95294
C          3.06694       -0.57032       -4.85047
C          3.34735        0.76784       -4.68438
S          4.68664        1.63736       -5.43822
C          5.29027        2.60131       -4.01775
C          6.78518        2.67971       -3.89925
S          7.48870        4.22867       -3.50033
C          9.06890        3.65763       -3.55447
N         10.18860        4.51179       -3.26785
O         11.31257        3.98587       -3.30901
O          9.96672        5.69897       -2.99851
C          9.13468        2.34463       -3.92681
C          7.83015        1.77224       -4.14116
C          7.80272        0.42979       -4.64609
C          6.88180       -0.53306       -4.52672
C          6.94356       -1.82404       -5.19863
C          7.41056       -2.12624       -6.42536
C          7.39834       -3.46174       -6.97762
C          7.93805       -3.55111       -8.20195
C          8.39739       -2.28307       -8.74243
S          8.11495       -1.00616       -7.56884
C          8.90532       -2.07018       -9.97235
C          9.05288       -3.06651      -11.01884
C          9.40984       -2.55886      -12.20707
C          9.60771       -1.13274      -12.17963
S          9.41357       -0.48741      -10.57620
C          9.88430       -0.36802      -13.23847
H          8.98742        7.23877       -7.24284
H          9.65042       11.07669       -8.49612
H          8.05893       11.37029       -6.26189
H          7.70378        7.66093       -4.79424
H          6.10875       10.28183       -4.92753
H          4.63765        9.08430       -3.38225
H          7.30640        7.85170       -2.42765
H          3.71011        5.45913        0.54828
H          4.55990        5.87994       -3.20398
H          4.69628        3.65948       -1.07279
H          0.61703        0.76169       -2.70082
H          3.59776       -1.30435       -5.44054
H         10.07052        1.81063       -4.06623
H          8.69629        0.17561       -5.21594
H          6.01988       -0.38742       -3.88309
H          6.48177       -2.62170       -4.61740
H          6.99545       -4.30850       -6.43936
H          8.01662       -4.48427       -8.74062
H          8.85032       -4.11678      -10.86970
H          9.52427       -3.14605      -13.10725
H          9.97501       -0.78728      -14.23413
H         10.01279        0.70588      -13.14048
