102

C          9.18515       -0.67799        9.97720
O          8.69480       -0.83295       11.23548
C          8.49141        0.41390       11.73469
C          8.84282        1.36786       10.80866
C          9.28363        0.65864        9.66286
C          9.75834        1.16955        8.42235
C          9.41863        2.36464        7.91362
C          9.94316        2.85864        6.66320
C         10.02351        4.16713        6.37663
C         10.58746        4.66167        5.14126
C         10.10633        4.45100        3.88284
C          8.79762        3.79143        3.59828
C         11.00433        5.07780        2.84879
C         11.98633        5.68284        3.55771
C         11.74517        5.51502        4.97548
C         12.48019        6.17005        5.88716
C         13.49043        7.09111        5.40930
C         13.70628        7.19818        4.09350
O         13.05866        6.42880        3.14010
C         10.91991        5.10106        1.38038
C         11.27324        6.13169        0.54017
C         11.74644        7.50374        0.89619
C         11.02332        5.80081       -0.89701
C         10.42600        4.58544       -0.89537
C         10.39902        4.07886        0.46946
C          9.97828        2.82034        0.69713
C          9.40635        2.06998       -0.39715
C          9.40221        2.59909       -1.63179
O          9.94562        3.83763       -1.93967
C         11.29540        6.57818       -2.10949
C         12.52491        6.96140       -2.55587
O         12.71242        7.70574       -3.72583
C         11.59196        8.05170       -4.38985
C         10.31591        7.65334       -3.94909
C          9.31514        8.10741       -4.77106
S          9.95746        9.03725       -6.07396
C         11.57227        8.81151       -5.52998
O         10.13034        6.90668       -2.83310
C         13.78206        6.69821       -1.90218
C         14.77817        5.99154       -2.45627
C         16.10455        5.75887       -1.88225
C         16.44136        6.23670       -0.65407
C         17.78400        6.05905       -0.13871
C         18.35042        6.46518        1.03038
C         17.62656        7.05431        2.22715
C         16.65788        5.98185        2.81770
N         17.29143        4.73089        3.22373
C         18.46191        7.64439        3.39759
N         19.28346        8.80340        3.04818
C         19.75434        6.07148        0.90481
C         20.84500        6.35797        1.62939
C         22.23350        5.84126        1.30104
C         22.28635        5.04431        0.00226
C         21.20457        4.76396       -0.74210
C         19.94171        5.30186       -0.32302
C         18.75938        5.31177       -0.94935
C         18.36585        4.75452       -2.21557
C         17.11403        4.98686       -2.65208
C         22.74985        5.06163        2.49454
C         23.58295        4.01696        2.48616
H          9.39607       -1.59539        9.44546
H          8.10636        0.45588       12.74365
H          8.79681        2.43784       10.95326
H         10.46157        0.54329        7.87473
H          8.71458        3.00472        8.44103
H         10.30384        2.12129        5.94770
H          9.73337        4.91715        7.10829
H          8.10532        3.90145        4.44193
H          8.92740        2.71789        3.44066
H          8.29711        4.23852        2.73635
H         12.29328        6.10016        6.95164
H         14.02482        7.70950        6.12110
H         14.39778        7.88187        3.62488
H         11.41719        7.80187        1.89474
H         11.35042        8.26077        0.21510
H         12.83863        7.55125        0.86518
H         10.02260        2.35410        1.66682
H          8.95521        1.10580       -0.19137
H          8.97373        2.12792       -2.50314
H          8.25016        7.95418       -4.68596
H         12.40855        9.24299       -6.06571
H         13.90747        7.19437       -0.95088
H         14.61891        5.55546       -3.44303
H         15.75690        6.80222       -0.03795
H         17.00014        7.88071        1.85772
H         15.87132        5.73891        2.09477
H         16.15374        6.40874        3.68759
H         18.13679        4.89075        3.76326
H         16.65326        4.16573        3.77876
H         19.09986        6.87056        3.83848
H         17.78710        7.96355        4.20167
H         18.70407        9.57678        2.73287
H         19.80017        9.12083        3.86672
H         20.80420        7.02214        2.47765
H         22.87477        6.72442        1.17522
H         23.25867        4.70130       -0.33347
H         21.27475        4.18726       -1.65478
H         19.07202        4.17266       -2.79366
H         16.81074        4.59206       -3.61755
H         22.39985        5.40143        3.46829
H         24.00130        3.61461        1.56342
H         23.87477        3.52647        3.40733
