85

C          9.97956       -4.70794        7.94918
C          9.18599       -5.39624        7.07549
C          9.03979       -4.74803        5.82608
C          9.65286       -3.52668        5.76742
S         10.48385       -3.20969        7.24416
C          8.30080       -5.53140        4.87148
O          7.92476       -5.19808        3.76782
C          8.14584       -6.86247        5.61212
C          8.47922       -6.64946        7.05818
C          8.08162       -7.37330        8.11447
N          8.31246       -6.96761        9.45098
O          9.36940       -7.34541        9.97530
O          7.46977       -6.23544        9.98231
N          7.19732       -8.47405        8.02191
O          5.98455       -8.23768        8.03181
O          7.71182       -9.59276        7.88648
C          7.97068       -8.03382        4.98054
C          7.82459       -8.13612        3.57466
S          6.23219       -8.14305        2.88162
C          6.87559       -8.31807        1.35371
C          8.23696       -8.39884        1.33084
C          8.81344       -8.28824        2.60776
C          8.64488       -8.58028       -0.03384
O          9.77024       -8.73357       -0.47015
C          7.33510       -8.56237       -0.80245
C          6.31669       -8.42188        0.07429
C          7.27266       -8.73904       -2.22375
C          6.30351       -8.22838       -2.99811
C          6.27906       -8.39629       -4.40848
C          5.16181       -8.42042       -5.22280
C          5.46662       -8.57514       -6.61069
C          6.84031       -8.64544       -6.81718
S          7.70610       -8.53151       -5.34902
C          7.36938       -8.78275       -8.09669
C          6.53331       -8.84766       -9.21811
C          5.15916       -8.78216       -9.01512
C          4.62837       -8.65314       -7.73261
S          4.30338       -8.87558      -10.49615
C          5.73709       -8.97287      -11.42568
C          6.85015       -8.96455      -10.60562
C          5.70495       -9.04368      -12.86650
S          7.17895       -9.14809      -13.79008
C          6.32225       -9.16240      -15.21578
C          4.97195       -9.10002      -15.05006
C          4.58850       -9.03096      -13.69999
C          4.36619       -9.12734      -16.35296
O          3.18321       -9.10461      -16.63693
C          5.55309       -9.19825      -17.29597
C          6.68909       -9.23138      -16.56511
C          5.42074       -9.29022      -18.72207
C          6.28794       -8.72782      -19.57494
C          6.16012       -8.82840      -21.01193
C          6.72081       -7.99924      -21.90414
C          6.58884       -8.15057      -23.33136
C          7.17645       -7.17146      -24.03165
C          7.81935       -6.15783      -23.21059
S          7.64875       -6.57404      -21.50710
C          8.45188       -5.05510      -23.65621
C          8.61555       -4.67005      -25.04753
C          9.27087       -3.51438      -25.22152
C          9.67507       -2.89857      -23.98483
S          9.20430       -3.84857      -22.60625
C         10.32947       -1.74028      -23.87485
H         10.32052       -4.96047        8.94581
H          9.68704       -2.82559        4.94324
H          8.00418       -8.98759        5.49617
H          9.87688       -8.32004        2.81209
H          5.26039       -8.39646       -0.14754
H          8.09729       -9.31167       -2.64628
H          5.48202       -7.66766       -2.55915
H          4.15194       -8.33528       -4.83841
H          8.44699       -8.83221       -8.23425
H          3.54966       -8.60311       -7.59794
H          7.86543       -9.02468      -10.97102
H          3.56269       -8.97055      -13.35757
H          7.70160       -9.30824      -16.93315
H          4.53631       -9.81087      -19.08368
H          7.13455       -8.16004      -19.19200
H          5.55765       -9.66002      -21.37365
H          6.06166       -8.98029      -23.78137
H          7.16512       -7.14063      -25.11139
H          8.24275       -5.25822      -25.87295
H          9.48012       -3.07655      -26.18745
H         10.61125       -1.16149      -24.74758
H         10.60035       -1.33552      -22.90453
