77

C          7.49157        2.59305        3.03592
C          7.21581        1.28405        2.75607
C          6.16948        1.12381        1.81685
C          5.60920        2.30528        1.41498
S          6.41818        3.63089        2.16183
C          5.93394       -0.25258        1.46696
O          5.04516       -0.70248        0.77391
C          7.08887       -0.96041        2.17669
C          7.71392       -0.00646        3.15543
C          8.46643       -0.28464        4.23095
N          8.91023        0.71908        5.12841
O          8.16334        1.01005        6.07052
O          9.98859        1.26704        4.86734
N          8.68888       -1.59457        4.72711
O          9.86206       -1.97757        4.80288
O          7.69495       -2.27616        5.00899
C          7.56113       -2.15880        1.79101
C          6.98013       -2.92549        0.74460
S          5.98960       -4.29557        1.15336
C          5.78363       -4.66653       -0.46037
C          6.41591       -3.80505       -1.30838
C          7.11737       -2.78660       -0.63495
C          6.17431       -4.25376       -2.65436
O          6.55331       -3.75514       -3.69800
C          5.35057       -5.51682       -2.46356
C          5.12544       -5.69985       -1.14425
C          4.91502       -6.33162       -3.55822
C          5.23725       -7.62907       -3.69100
C          4.85701       -8.37449       -4.83100
S          3.47140       -8.08562       -5.81769
C          3.83603       -9.36810       -6.94132
C          4.95609       -9.98368       -6.49076
C          5.50456       -9.44067       -5.34611
O          6.64970      -10.01151       -4.87041
C          6.80304      -11.00208       -5.81731
N          7.94245      -11.83556       -5.62678
O          7.72369      -13.04958       -5.53670
O          9.04659      -11.27974       -5.61190
C          5.81545      -11.05613       -6.80467
C          3.02206       -9.62228       -8.09942
S          1.34242       -9.30886       -8.08337
C          1.11185       -9.90636       -9.66780
C         -0.23103       -9.98527      -10.22448
O         -0.50086      -10.36517      -11.35521
O         -1.19801       -9.57750       -9.36477
C          2.32600      -10.28103      -10.23548
C          3.41351      -10.13356       -9.31760
C          2.44301      -10.90664      -11.51715
C          2.47886      -10.34753      -12.73822
C          2.44590       -8.93698      -13.22076
C          3.10370       -7.87525      -12.72949
N          3.06472       -6.60285      -13.35601
O          2.18148       -5.82332      -12.97352
O          3.87744       -6.37957      -14.26197
N          4.18392       -7.99098      -11.81395
O          4.12720       -7.31159      -10.78222
O          5.10786       -8.76278      -12.10858
C          1.72175       -9.00561      -14.46630
C          1.18498       -8.12723      -15.36588
S          0.50468       -8.98483      -16.70675
C          0.94276      -10.52068      -16.05791
C          1.57641      -10.36140      -14.85649
C          2.10957      -11.28034      -13.88566
O          2.19831      -12.49032      -13.93994
H          8.24058        3.03810        3.67873
H          4.79792        2.46724        0.71696
H          8.45092       -2.59539        2.23335
H          7.69810       -2.01198       -1.12151
H          4.55737       -6.49491       -0.68330
H          4.36154       -5.79546       -4.32697
H          5.86298       -8.11876       -2.94669
H          5.76329      -11.76436       -7.61948
H         -0.84054       -9.30055       -8.49441
H          4.44303      -10.39761       -9.55196
H          2.35501      -11.99820      -11.47181
H          1.13234       -7.04643      -15.35673
H          0.69815      -11.43697      -16.57932
