85

C          2.21521       -1.89211        2.39208
C          2.86581       -2.71848        1.51797
C          2.46487       -2.53232        0.17778
C          1.41893       -1.66223        0.03471
S          0.99756       -0.98492        1.56207
C          3.26586       -3.27364       -0.76010
O          3.15372       -3.28533       -1.96796
C          4.32366       -3.91837        0.14893
C          3.92219       -3.69835        1.58590
C          4.30260       -4.38234        2.67597
N          3.55514       -4.34483        3.88832
O          2.62445       -5.15071        4.00376
O          3.86880       -3.49307        4.73641
N          5.16613       -5.50960        2.63533
O          6.22402       -5.42577        3.27673
O          4.82646       -6.47622        1.93924
C          5.45230       -4.45580       -0.35431
C          5.70132       -4.71924       -1.76335
C          6.73309       -4.24388       -2.50971
O          6.90918       -4.62039       -3.85171
C          5.97653       -5.45006       -4.36260
C          4.91212       -5.94373       -3.58963
C          4.07288       -6.76724       -4.29310
S          4.60423       -6.92870       -5.92368
C          5.95538       -5.89418       -5.65891
O          4.75669       -5.61647       -2.28953
C          7.83094       -3.40759       -2.07378
C          7.79938       -2.38972       -1.20106
C          8.98570       -1.64484       -0.82904
C         10.05928       -2.15073       -0.16485
O         11.16661       -1.35603        0.16540
C         11.06777       -0.04966       -0.15532
C          9.94011        0.47959       -0.80999
C         10.02983        1.83138       -1.01858
S         11.52060        2.44559       -0.41003
C         12.02395        0.88983        0.12716
O          8.88813       -0.28915       -1.17047
C         10.18441       -3.52313        0.29431
C         10.93760       -3.89926        1.34019
C         11.06933       -5.27686        1.75486
C         10.85013       -5.74663        3.00966
O         11.01927       -7.10380        3.33015
C         11.50708       -7.88408        2.33816
C         11.74215       -7.39016        1.04165
C         12.25822       -8.32898        0.18681
S         12.45574       -9.83744        0.99290
C         11.84205       -9.20630        2.47438
O         11.49315       -6.10689        0.70731
C         10.43355       -4.97065        4.16599
C         11.20368       -4.02285        4.72611
C         10.96576       -3.38790        6.00425
C          9.93405       -2.64430        6.43230
C          8.64931       -2.22877        5.80785
C          8.42412       -1.76752        4.56560
N          7.11774       -1.35374        4.16633
O          6.80641       -0.16816        4.33812
O          6.37353       -2.23039        3.69765
N          9.44093       -1.26175        3.68940
O         10.56317       -1.01663        4.15077
O          9.11616       -1.04140        2.51707
C          7.74596       -2.09107        6.92738
C          6.40441       -1.91653        7.12647
S          6.08509       -1.59734        8.79700
C          7.74731       -1.74319        9.23089
C          8.49691       -2.05642        8.12999
C          9.89278       -2.33520        7.92294
O         10.79205       -2.37159        8.73761
H          2.35209       -1.73486        3.45387
H          0.90553       -1.36388       -0.87059
H          6.26145       -4.79247        0.28840
H          3.18223       -7.27282       -3.94853
H          6.64536       -5.66785       -6.45930
H          8.77811       -3.64308       -2.56287
H          6.87421       -2.04820       -0.74803
H          9.31125        2.48982       -1.48442
H         12.97497        0.75118        0.62188
H          9.60746       -4.28088       -0.22848
H         11.50057       -3.16515        1.91079
H         12.53750       -8.21393       -0.85114
H         11.77352       -9.83248        3.35236
H          9.51721       -5.30991        4.64343
H         12.18036       -3.80022        4.29182
H         11.78660       -3.57271        6.70425
H          5.57572       -1.91770        6.42923
H          8.07105       -1.59754       10.25342
