95

C          0.39402        4.66830        4.54526
C          1.59027        5.25147        4.30330
C          1.97994        6.47013        4.93144
N          2.27843        7.46438        5.44928
C          2.59434        4.58692        3.54006
N          3.44801        4.02011        2.99018
C         -0.54026        5.02830        5.62941
C         -1.11966        3.83861        6.10142
C         -1.99178        3.81107        7.17438
C         -2.35836        5.03643        7.75391
C         -1.85798        6.25936        7.21439
C         -0.93318        6.24483        6.15734
C         -2.30596        7.47753        7.74241
C         -3.20662        7.50318        8.80648
C         -3.66005        6.31143        9.36495
C         -3.24251        5.08601        8.84106
C         -0.77454        2.71412        5.19518
O         -1.09983        1.55257        5.31109
C         -0.05708        3.36912        4.04847
C         -0.28092        2.91122        2.80401
C         -0.17857        3.71356        1.61702
C          0.23979        3.37658        0.34297
C          0.19495        4.47644       -0.58254
O          0.61967        4.42174       -1.87287
C          0.39622        3.13522       -2.46298
C          1.29388        2.08309       -1.83053
S          0.78188        1.75652       -0.11855
C         -0.29601        5.65290       -0.02694
S         -0.86361        5.29643        1.56586
C         -0.49362        7.02917       -0.58793
C         -0.88431        7.30474       -1.91769
C         -1.01132        8.65412       -2.43634
N         -1.29878        8.81139       -3.74917
C         -1.55655        7.74070       -4.51819
C         -1.49283        6.47795       -4.01107
N         -1.16658        6.25663       -2.72538
C         -0.88377        9.82591       -1.63085
C         -0.59235        9.57881       -0.26070
C         -0.32469        8.17527        0.25064
N          0.07969        8.17977        1.53745
S         -0.02993        9.72505        2.09722
N         -0.56458       10.47890        0.73709
C         -1.11959       11.23066       -2.12306
C         -0.56199       12.48028       -1.84669
C         -1.15511       13.55887       -2.61038
O         -0.84172       14.88608       -2.58013
C          0.40666       15.19498       -1.95796
C          0.52856       14.60910       -0.56181
S          0.77926       12.81824       -0.73941
C         -2.16651       13.14141       -3.45517
S         -2.35489       11.45094       -3.30621
C         -2.87725       13.89057       -4.45858
C         -4.14538       13.67255       -4.85260
C         -4.81863       14.09844       -6.10539
C         -4.72138       15.29632       -6.72929
C         -5.50109       15.63183       -7.87734
N         -6.12646       15.89887       -8.81101
C         -3.87594       16.33321       -6.24213
N         -3.17529       17.17680       -5.85661
C         -5.76081       12.98910       -6.45620
C         -5.88442       12.15996       -5.33413
C         -5.07397       12.67332       -4.22964
O         -5.22747       12.39521       -3.05933
C         -6.62164       10.98907       -5.30759
C         -7.29317       10.61545       -6.47137
C         -7.21592       11.44121       -7.62913
C         -6.43559       12.62299       -7.61397
C         -7.92075       11.04964       -8.77816
C         -8.67039        9.86982       -8.79357
C         -8.72209        9.05763       -7.66425
C         -8.03729        9.42812       -6.50850
H         -2.40677        2.86769        7.51732
H         -0.56300        7.18076        5.74806
H         -1.96230        8.42204        7.32439
H         -3.55061        8.45604        9.20116
H         -4.34932        6.33548       10.20535
H         -3.62040        4.16908        9.28852
H         -0.69900        1.91259        2.67673
H          0.65113        3.22817       -3.52478
H         -0.66959        2.86542       -2.42553
H          2.33161        2.42923       -1.81110
H          1.24668        1.14590       -2.39340
H         -1.82890        7.94225       -5.54704
H         -1.69195        5.60347       -4.61763
H          0.45067       16.28801       -1.88536
H          1.23345       14.89686       -2.61600
H         -0.37601       14.79858        0.02757
H          1.38600       15.03538       -0.03312
H         -2.25211       14.60406       -4.99134
H         -6.64306       10.38277       -4.40666
H         -6.36399       13.20743       -8.52600
H         -7.89827       11.66352       -9.67650
H         -9.21486        9.58464       -9.69028
H         -9.30004        8.13693       -7.68018
H         -8.09074        8.78080       -5.63515
