115

C         -9.72752       -6.25116       -8.99727
C         -9.37730       -7.36623       -8.30861
C         -8.14319       -8.04737       -8.53637
N         -7.14354       -8.59823       -8.72811
C        -10.16642       -7.89423       -7.24737
N        -10.79863       -8.33396       -6.37859
C         -8.86309       -5.52391       -9.97359
C         -9.28298       -4.19375      -10.01838
C         -8.67194       -3.20704      -10.78016
C         -7.63158       -3.60554      -11.64562
C         -7.25786       -4.95888      -11.67550
C         -7.84275       -5.93317      -10.82466
S         -6.05405       -5.23896      -12.88430
C         -6.05015       -3.61614      -13.34866
C         -6.87818       -2.83187      -12.59229
Br        -5.03331       -2.95771      -14.77699
C        -10.53527       -4.01921       -9.27117
O        -11.14406       -2.97433       -9.17334
C        -10.90621       -5.38838       -8.76754
C        -12.14172       -5.69934       -8.34156
C        -13.24677       -4.75928       -8.24614
C        -13.90184       -4.45820       -7.11562
C        -14.89954       -3.42106       -6.99153
C        -15.16531       -3.08830       -5.71762
C        -14.38751       -3.84229       -4.74543
S        -13.55795       -5.17277       -5.56398
C        -14.19166       -3.54300       -3.44595
C        -14.69274       -2.39904       -2.70540
C        -13.99587       -2.14261       -1.58173
C        -12.87453       -3.04641       -1.39138
S        -13.12556       -4.46259       -2.38777
C        -11.79891       -2.80256       -0.61311
C        -10.51873       -3.56933       -0.54038
C         -9.73113       -3.69446        0.61351
C         -8.55720       -4.55466        0.68190
N         -7.85993       -4.58982        1.83785
C         -8.22194       -3.78654        2.87205
C         -9.32692       -2.97719        2.79647
N        -10.09534       -2.94314        1.67850
C         -9.74367       -2.12726        3.86793
N        -10.07579       -1.44375        4.75255
C         -7.35135       -3.80388        4.00237
N         -6.63455       -3.78606        4.92534
C         -8.09331       -5.34024       -0.41150
C         -8.74015       -5.02749       -1.65344
C         -9.92658       -4.10244       -1.71482
N        -10.28233       -3.81852       -2.97952
S         -9.41346       -4.78428       -3.98160
N         -8.40091       -5.47604       -2.87947
C         -7.01739       -6.39854       -0.34522
C         -5.90008       -6.35173        0.53481
C         -4.96636       -7.39979        0.56584
C         -5.15473       -8.54426       -0.23565
C         -6.20346       -8.61473       -1.12334
C         -7.11145       -7.55140       -1.17492
C         -4.08835       -9.49096       -0.01296
C         -3.15342       -8.92452        0.86339
C         -3.64752       -7.55443        1.35311
C         -2.57557       -6.48156        0.99816
C         -2.21959       -6.34254       -0.48523
C         -3.86168       -7.60658        2.89552
C         -4.88117       -8.63362        3.39838
C         -1.96101       -9.57012        1.15338
C         -1.71368      -10.82932        0.59409
C         -2.69928      -11.42850       -0.21849
C         -3.89186      -10.76086       -0.52413
C         -0.41942      -11.50128        0.78297
C          0.35253      -11.33071        1.86714
C          1.60769      -12.02403        2.04927
C          2.16186      -12.33181        3.23169
C          3.40102      -13.05352        3.37276
C          3.75982      -13.26436        4.64665
C          2.82140      -12.73425        5.62292
S          1.47465      -11.95651        4.79301
C          2.93202      -12.81612        6.96346
C          4.01642      -13.44762        7.69623
C          3.87482      -13.40372        9.02845
C          2.67100      -12.73626        9.45040
S          1.74358      -12.16110        8.09646
C          2.28263      -12.56376       10.71606
H         -9.03438       -2.18292      -10.75747
H         -7.51894       -6.96547      -10.90646
H         -6.99673       -1.76402      -12.73276
H        -12.40244       -6.71046       -8.03891
H        -13.47456       -4.20216       -9.15453
H        -15.33588       -2.92952       -7.85101
H        -15.85100       -2.29976       -5.44302
H        -15.52361       -1.79833       -3.04549
H        -14.20145       -1.31453       -0.91856
H        -11.82579       -1.92969        0.03980
H         -5.74332       -5.50711        1.19802
H         -6.31668       -9.46361       -1.78728
H         -7.91512       -7.65624       -1.90193
H         -1.64191       -6.71713        1.52983
H         -2.89116       -5.49840        1.36596
H         -1.94507       -7.29690       -0.94602
H         -1.35625       -5.67682       -0.59673
H         -3.04681       -5.90921       -1.05412
H         -4.16514       -6.61955        3.26734
H         -2.90332       -7.83307        3.38448
H         -5.90503       -8.29013        3.22301
H         -4.76365       -8.78157        4.47774
H         -4.76081       -9.61363        2.92757
H         -1.22413       -9.07921        1.78077
H         -2.54447      -12.42395       -0.62976
H         -4.63948      -11.23054       -1.15379
H         -0.11315      -12.17892       -0.00975
H          0.04682      -10.66709        2.67339
H          2.11779      -12.30693        1.13067
H          3.97686      -13.38831        2.52090
H          4.66642      -13.78458        4.91763
H          4.86399      -13.91392        7.21562
H          4.58410      -13.82370        9.72776
H          2.87328      -12.93028       11.54780
H          1.35651      -12.04943       10.95513
