80

C         -0.15788       -4.19938        3.68429
C          0.67223       -3.88161        2.68892
C          1.18080       -2.56659        2.40515
C          2.02300       -2.53428        1.36190
C          2.24906       -3.83340        0.74741
S          1.27628       -5.06232        1.56713
C          3.10816       -4.10894       -0.25225
C          3.97878       -3.17561       -0.94361
C          4.93702       -3.77306       -1.67050
C          4.91192       -5.22135       -1.57150
S          3.40311       -5.73228       -0.85971
C          5.94348       -6.00519       -1.93196
C          6.07521       -7.40601       -1.69336
S          5.54935       -8.23684       -0.26951
C          6.15941       -9.76958       -0.77287
C          6.82210       -9.56150       -1.93495
C          6.81137       -8.26761       -2.46834
S          7.76197       -8.01973       -3.99405
C          8.19024       -9.69353       -3.81136
N          9.15807      -10.23243       -4.72025
O         10.08131      -10.87893       -4.21261
O          8.98800      -10.02222       -5.93132
C          7.62215      -10.40030       -2.74876
C          5.98108      -10.91183        0.05261
C          4.88043      -11.67836        0.00524
C          4.58642      -12.74002        0.94089
C          3.31086      -13.14709        0.90409
C          2.50661      -12.42817       -0.07132
S          3.55724      -11.47008       -1.11332
C          1.16195      -12.36636       -0.11066
C          0.23626      -13.02311        0.79360
C         -1.00599      -12.51634        0.75263
C         -1.14451      -11.41948       -0.18050
S          0.27369      -11.29749       -1.19277
C         -2.18952      -10.57761       -0.21043
C         -2.21098       -9.41821       -1.02188
S         -1.38997       -7.96185       -0.60633
C         -1.85780       -7.15147       -2.06347
C         -2.63748       -8.01233       -2.76832
C         -2.86148       -9.27838       -2.21437
S         -3.89279      -10.42213       -3.16273
C         -3.98448       -9.12680       -4.31382
N         -4.72034       -9.37800       -5.51754
O         -4.12976       -9.14365       -6.57955
O         -5.88660       -9.77421       -5.40045
C         -3.30712       -7.93926       -4.02076
C         -1.39572       -5.83114       -2.31339
C         -2.08422       -4.73367       -1.96221
C         -1.61485       -3.38212       -2.16318
C         -2.49914       -2.44178       -1.79566
C         -3.75271       -2.97812       -1.28772
S         -3.65750       -4.73772       -1.20686
C         -4.85520       -2.27926       -0.95203
C         -5.02764       -0.83769       -1.02783
C         -6.25437       -0.41503       -0.69281
C         -7.14250       -1.48727       -0.31967
S         -6.35062       -3.03099       -0.38520
C         -8.42309       -1.35718        0.03328
H         -0.52960       -3.45515        4.37863
H         -0.49051       -5.22315        3.83160
H          0.91030       -1.70103        2.99351
H          2.50931       -1.62946        1.02780
H          3.88496       -2.10250       -0.85627
H          5.69694       -3.23641       -2.22238
H          6.79820       -5.52288       -2.40305
H          7.82031      -11.44877       -2.55814
H          6.73595      -11.09068        0.81227
H          5.31589      -13.10960        1.65264
H          2.90461      -13.88954        1.57350
H          0.53078      -13.80959        1.47374
H         -1.81287      -12.84492        1.39348
H         -3.03099      -10.72719        0.46099
H         -3.30579       -7.07881       -4.68002
H         -0.41986       -5.73590       -2.78114
H         -0.63569       -3.16087       -2.56739
H         -2.30029       -1.38262       -1.88112
H         -4.24273       -0.16384       -1.33841
H         -6.56578        0.61991       -0.70159
H         -8.91274       -0.39253        0.06736
H         -9.02047       -2.22376        0.29127
