94

C        -10.16395       -8.98968        6.23041
C        -10.87666       -9.94309        5.49787
C        -10.28040      -10.62892        4.42912
C         -8.95278      -10.38614        4.07435
C         -8.23285       -9.46426        4.81853
C         -8.83986       -8.75272        5.89458
C         -7.86579       -7.72947        6.39335
C         -7.79424       -7.18034        7.62654
C         -8.71377       -7.52019        8.65753
N         -9.45726       -7.81284        9.49934
C         -6.71385       -6.32867        7.99713
N         -5.81991       -5.63925        8.26590
C         -6.85700       -7.62434        5.31455
C         -6.84796       -8.95424        4.66068
C         -5.75725       -9.65156        4.27037
C         -4.44503       -9.14328        4.51182
N         -3.39981       -8.71244        4.77180
C         -5.83981      -10.97526        3.76059
N         -5.90235      -12.06659        3.36099
C         -6.39836       -6.46538        4.80470
C         -5.73630       -6.38633        3.48000
N         -6.04501       -7.16828        2.47304
C         -5.23998       -6.72814        1.47799
C         -4.44204       -5.61959        1.92644
C         -3.56212       -5.18626        0.80633
O         -2.74849       -4.29049        0.78134
C         -3.91936       -6.14807       -0.27097
C         -4.94617       -7.03084        0.21973
N         -5.29007       -7.93421       -0.73195
C         -4.50947       -7.61267       -1.72604
C         -3.58904       -6.47227       -1.51504
C         -4.69847       -5.34195        3.20178
C         -4.15400       -4.31726        4.03531
C         -4.03830       -4.37569        5.36937
C         -3.48857       -3.34072        6.19735
C         -2.86277       -3.54082        7.36282
C         -2.34936       -2.31247        7.87493
C         -2.65836       -1.27949        7.07877
C         -3.55363       -1.84643        6.04055
S         -4.60246       -0.99655        5.04347
C         -2.11500        0.04812        7.38676
N         -1.88081        0.39921        8.63589
C         -1.28033        1.60371        8.52628
C         -1.13528        1.96257        7.14152
C         -0.40509        3.25337        7.07487
O          0.03176        3.82966        6.10752
C         -0.23396        3.60819        8.50145
C         -0.77660        2.55091        9.30996
N         -0.60235        2.83551       10.62597
C         -0.00731        3.99654       10.59306
C          0.27216        4.57146        9.25954
C         -1.69584        1.05457        6.34416
C         -1.84987        1.05302        4.91356
C         -2.49339        2.05154        4.28280
C         -2.91506        2.10587        2.89432
C         -2.21355        2.07811        1.74408
C         -2.80338        2.02430        0.37214
C         -3.91660        2.66505       -0.06478
C         -4.69223        3.51200        0.78074
N         -5.33496        4.19251        1.46719
C         -4.37868        2.60350       -1.41055
N         -4.77454        2.55977       -2.49973
C         -1.81759        1.23725       -0.45092
C         -0.64043        1.01420        0.32408
C          0.40400        0.24779       -0.18093
C          0.31678       -0.23387       -1.48842
C         -0.81098        0.02833       -2.27149
C         -1.89136        0.74544       -1.75028
C         -0.77312        1.78359        1.59912
C          0.24147        2.42031        2.23203
C          1.61197        2.09493        2.03431
N          2.72581        1.80026        1.88584
C         -0.02157        3.63207        2.93641
N         -0.26149        4.68624        3.36045
H        -10.67633       -8.44087        7.01346
H        -11.91895      -10.13931        5.74270
H        -10.86641      -11.34523        3.85627
H         -8.53157      -10.89398        3.21197
H         -6.61060       -5.50993        5.27325
H         -4.49914       -8.13797       -2.69288
H         -2.86425       -6.06892       -2.19326
H         -3.77066       -3.45033        3.49805
H         -4.28932       -5.28923        5.90438
H         -2.67910       -4.49824        7.83201
H         -1.73035       -2.26157        8.76151
H          0.29556        4.55850       11.48932
H          0.75682        5.49376        9.00991
H         -1.51635        0.17220        4.37210
H         -2.89331        2.88195        4.87108
H         -4.00040        2.20327        2.85571
H          1.29257        0.01518        0.39649
H          1.13876       -0.81155       -1.90791
H         -0.85217       -0.33676       -3.29629
H         -2.74964        0.89243       -2.39505
