106

C        -12.11580        1.51135       -8.73409
O        -11.11467        1.14476       -9.57584
C         -9.96804        1.67109       -9.07274
C        -10.22166        2.36475       -7.91104
C        -11.61970        2.27489       -7.70216
C        -12.36875        2.81923       -6.62280
C        -13.67284        3.13435       -6.67122
C        -14.43720        3.65016       -5.55885
C        -14.22748        3.30841       -4.27872
C        -14.99460        3.79246       -3.15070
C        -15.18328        5.07296       -2.80017
C        -15.81345        5.50491       -1.57528
C        -15.58613        6.79670       -1.28706
C        -14.77562        7.47390       -2.28231
S        -14.58448        6.43784       -3.69441
C        -14.13960        8.65402       -2.16366
C        -14.07668        9.51378       -0.99756
C        -13.11351       10.44763       -1.07417
C        -12.35823       10.37876       -2.30476
S        -13.10460        9.28985       -3.43375
C        -11.21547       11.02627       -2.55810
C        -10.36411       10.77399       -3.71229
C         -9.50814       11.63931       -4.25564
C         -8.45652       11.26496       -5.17254
C         -7.44467       12.14059       -5.16296
C         -7.69076       13.28817       -4.29925
S         -9.39088       13.32418       -3.84100
C         -6.77995       14.10144       -3.74757
C         -5.34538       13.89272       -3.75786
C         -4.69961       14.61520       -2.83257
C         -5.56186       15.51055       -2.08681
S         -7.18402       15.46968       -2.71473
C         -5.15767       16.28518       -1.07217
C         -5.94711       17.28342       -0.36593
C         -5.57745       18.58236       -0.25878
O         -6.36524       19.54396        0.38415
C         -7.55023       19.09752        0.85378
C         -7.92614       17.74079        0.77753
C         -9.16296       17.50068        1.31946
S         -9.87470       18.96172        1.89338
C         -8.50868       19.89688        1.42042
O         -7.13387       16.80026        0.20967
C         -4.38502       19.13890       -0.86116
C         -3.40006       19.72233       -0.15715
C         -2.20509       20.31004       -0.76240
C         -1.06000       20.37791       -0.02907
C          0.14698       20.95776       -0.60480
C          1.39568       21.13525       -0.09178
C          1.88378       20.77013        1.31099
C          3.36842       20.31402        1.38862
N          3.80465       19.87801        2.72113
C          1.54961       21.92570        2.30046
N          1.96327       21.68281        3.69009
C          2.15405       21.78523       -1.17850
C          3.41106       22.24311       -1.27582
C          3.96037       22.93908       -2.51552
C          2.98602       22.96526       -3.68165
C          1.72450       22.51257       -3.59958
C          1.28005       21.95056       -2.34619
C          0.08786       21.47498       -1.99148
C         -1.15297       21.42603       -2.72612
C         -2.22979       20.89570       -2.12487
C          4.36352       24.34761       -2.14562
C          5.60338       24.84973       -2.23193
H        -13.09927        1.14533       -8.99108
H         -9.07392        1.46577       -9.64331
H         -9.48796        2.87781       -7.30592
H        -11.82025        2.97479       -5.69544
H        -14.22638        3.05090       -7.60439
H        -15.25182        4.32233       -5.82245
H        -13.43855        2.60528       -4.01904
H        -15.34212        3.00305       -2.48830
H        -16.36725        4.82926       -0.93870
H        -15.94251        7.27846       -0.38806
H        -14.70155        9.37698       -0.12642
H        -12.87530       11.14260       -0.28142
H        -10.81216       11.70668       -1.80961
H        -10.34524        9.74126       -4.06245
H         -8.45817       10.33342       -5.72272
H         -6.53094       12.00834       -5.72563
H         -4.86316       13.14851       -4.37618
H         -3.63757       14.53915       -2.64096
H         -4.11495       16.23735       -0.75922
H         -9.69307       16.56302        1.39797
H         -8.48721       20.96599        1.57556
H         -4.33974       19.05293       -1.94155
H         -3.47154       19.76117        0.92879
H         -1.00401       19.97799        0.97728
H          1.29559       19.89620        1.63218
H          4.03191       21.13646        1.13079
H          3.54738       19.49131        0.68845
H          3.56704       20.65498        3.36083
H          4.82205       19.82790        2.74214
H          0.46465       22.09082        2.30634
H          2.01925       22.85562        1.96486
H          1.55617       20.80160        4.01293
H          1.60423       22.41548        4.29960
H          4.12403       22.17497       -0.46912
H          4.84131       22.37078       -2.84262
H          3.35205       23.36378       -4.62455
H          1.05587       22.53939       -4.45153
H         -1.21275       21.83757       -3.72669
H         -3.17749       20.89725       -2.65677
H          3.57103       24.98658       -1.75734
H          6.43887       24.26415       -2.60151
H          5.80417       25.87214       -1.92512
