74

C          1.11277        0.51419        0.11333
O          0.90399       -0.82113        0.14759
C         -0.03536       -1.14096       -0.80477
C         -0.40539        0.03828       -1.43727
C          0.31915        1.11045       -0.83877
C          0.23378        2.55010       -1.16089
F          1.06311        3.30224       -0.39371
F          0.56139        2.79608       -2.45451
F         -1.02141        3.03157       -0.97448
C         -0.49218       -2.46077       -1.05390
C         -0.52046       -3.36958       -0.06697
N         -0.90574       -4.71087       -0.10498
C         -0.90877       -5.55490        0.99594
C         -0.66585       -5.19690        2.30727
S         -0.62847       -6.54149        3.36448
C         -0.98297       -7.61963        2.08731
C         -1.18833       -6.97308        0.88464
N         -1.54474       -7.56592       -0.31512
C         -1.93192       -6.60589       -1.36829
C         -0.96216       -5.42188       -1.40755
C         -1.99958       -8.84426       -0.46401
O         -2.68457       -9.36879        0.58734
C         -3.07190      -10.65150        0.31148
C         -2.63604      -10.93088       -0.97528
C         -1.94044       -9.78186       -1.47931
C         -1.27149       -9.71013       -2.79738
F         -0.57359       -8.56681       -3.01687
F         -0.39003      -10.73013       -2.96708
F         -2.17260       -9.80948       -3.81158
C         -3.76966      -11.48218        1.23023
C         -4.09976      -11.02810        2.45885
N         -4.74843      -11.67864        3.51108
C         -5.02074      -11.08449        4.74046
C         -4.88324       -9.74669        5.04942
S         -5.20252       -9.41295        6.69555
C         -5.57189      -11.05116        7.01129
C         -5.52275      -11.83798        5.87887
N         -5.84132      -13.18390        5.78926
C         -6.03292      -13.63532        4.39411
C         -4.87007      -13.15937        3.51273
C         -6.39200      -13.96061        6.77449
O         -7.17185      -13.32397        7.69695
C         -7.64630      -14.21998        8.61992
C         -7.17141      -15.46407        8.25011
C         -6.35635      -15.31118        7.08244
C         -5.62514      -16.42831        6.44942
F         -4.84196      -16.07474        5.40011
F         -4.81234      -17.05804        7.33851
F         -6.48698      -17.37400        5.98645
C         -8.45719      -13.87752        9.73469
C         -8.83139      -12.61138        9.95748
H          1.83902        0.88938        0.82249
H         -1.13995        0.11841       -2.22873
H         -0.83047       -2.69189       -2.05526
H         -0.20758       -3.04548        0.92301
H         -0.47327       -4.21824        2.71984
H         -1.04443       -8.67657        2.30158
H         -2.95539       -6.25126       -1.18616
H         -1.94346       -7.06085       -2.36109
H         -1.29426       -4.75932       -2.21209
H          0.04897       -5.76865       -1.66021
H         -2.77431      -11.86976       -1.49568
H         -4.01578      -12.48575        0.91693
H         -3.82412      -10.00637        2.70208
H         -4.59077       -8.92818        4.40854
H         -5.84053      -11.33561        8.01774
H         -6.98085      -13.23197        4.01124
H         -6.11338      -14.72072        4.30803
H         -5.04952      -13.53761        2.50118
H         -3.92427      -13.58933        3.86863
H         -7.36190      -16.39004        8.77797
H         -8.76635      -14.66206       10.41863
H         -8.53959      -11.79994        9.29759
H         -9.44306      -12.35916       10.81719
