108

C          3.28261       -4.82992        9.82757
C          2.13413       -4.79108       10.60759
F          1.96378       -5.70708       11.56942
C          1.14882       -3.83839       10.38706
C          1.31594       -2.89067        9.37540
C          2.45428       -2.91850        8.55450
C          3.44643       -3.91884        8.77792
C          4.53946       -4.04581        7.90553
C          4.59004       -3.25577        6.76825
C          3.66066       -2.21295        6.61915
C          2.60509       -2.01454        7.49386
C          3.91959       -1.46410        5.37420
O          3.33878       -0.47038        4.99215
C          5.06847       -2.16726        4.71084
C          5.31679       -3.39847        5.47521
C          5.69251       -4.60172        4.97858
C          5.63763       -4.87029        3.57919
N          5.50624       -5.10406        2.45031
C          6.04488       -5.70869        5.80216
N          6.38076       -6.58004        6.49157
C          5.74720       -1.54655        3.72928
C          7.01817       -1.94361        3.10867
C          7.30940       -1.64650        1.78785
N          8.48076       -1.93735        1.17865
C          9.39695       -2.56237        1.93586
N          9.23715       -2.88766        3.22922
C          8.06152       -2.54601        3.78656
C         10.67980       -2.86893        1.30129
C         11.10227       -2.59623       -0.00767
C         12.41522       -3.05663       -0.22798
C         12.92975       -3.64262        0.90281
S         11.92113       -3.67672        2.21375
C         14.23403       -4.09301        0.63305
C         14.55178       -3.79767       -0.67132
C         13.41691       -3.11619       -1.29426
C         13.31664       -2.65395       -2.55855
C         14.38308       -2.79028       -3.48962
N         15.25665       -2.90097       -4.23904
C         12.14118       -2.00853       -3.02764
N         11.18396       -1.48127       -3.42661
C         15.85154       -4.24857       -0.99264
C         16.44558       -4.88544        0.10093
S         15.40907       -4.86807        1.49758
C         17.75198       -5.49176        0.16115
C         18.87599       -5.13606       -0.54097
C         20.06454       -5.91965       -0.24009
C         21.40270       -5.84401       -0.73015
C         21.77845       -4.80990       -1.75436
C         22.94774       -4.07060       -1.91251
C         22.93762       -3.19074       -3.03934
C         21.74187       -3.22667       -3.71556
S         20.72523       -4.43818       -3.07650
C         21.29171       -2.44938       -4.90846
Cl        24.29429       -2.23223       -3.45578
C         22.37855       -6.76409       -0.25881
C         22.06503       -7.76131        0.68307
C         20.74222       -7.80722        1.20757
C         19.76220       -6.90205        0.71948
S         18.07933       -6.83410        1.12663
C         20.40706       -8.81282        2.27606
C         20.81992      -10.13021        2.44955
C         20.31889      -10.74971        3.63832
C         19.47021       -9.92634        4.33831
S         19.43006       -8.37326        3.63995
C         18.70748      -10.18912        5.59525
Cl        20.76958      -12.33628        4.09921
C         23.22704       -8.59184        0.93879
C         24.37004       -8.22277        0.26688
S         24.05269       -6.88108       -0.71449
C         25.67844       -8.83820        0.33279
C         26.65937       -8.87838       -0.66299
C         27.80341       -9.58234       -0.22990
C         27.65932      -10.03456        1.06321
S         26.21046       -9.65306        1.77730
C         28.82691      -10.72942        1.43935
C         29.71361      -10.71947        0.38216
C         29.11680       -9.99089       -0.73775
C         29.65047       -9.75305       -1.95190
C         30.94233      -10.22027       -2.29978
N         32.00764      -10.60780       -2.58844
C         28.94901       -9.02427       -2.94890
N         28.37384       -8.42881       -3.75870
C         30.90735      -11.40377        0.69556
C         30.85483      -11.89992        1.99305
S         29.36636      -11.52578        2.79594
H          4.01537       -5.60896       10.02257
H          0.25057       -3.84775       10.99648
H          0.52935       -2.15730        9.20829
H          5.27419       -4.82086        8.09872
H          1.87909       -1.22868        7.30194
H          5.35884       -0.59509        3.35782
H          6.59017       -1.14170        1.14697
H          8.00318       -2.78461        4.84377
H         10.45943       -2.09641       -0.72226
H         16.34379       -4.15565       -1.95366
H         18.83790       -4.31703       -1.24457
H         23.80908       -4.15373       -1.26269
H         21.89042       -1.54526       -5.05991
H         20.24786       -2.13007       -4.80736
H         21.37639       -3.06693       -5.80811
H         21.47931      -10.65100        1.76876
H         18.33522      -11.21863        5.63388
H         17.83722       -9.52958        5.69229
H         19.35550      -10.02438        6.46170
H         23.22805       -9.44877        1.59570
H         26.51737       -8.42778       -1.63832
H         31.76840      -11.55051        0.05566
H         31.61360      -12.46563        2.51733
