113

C        -13.81331       -9.74055        1.31395
C        -13.45102      -10.66867        2.29873
C        -12.13666      -10.73479        2.78497
C        -11.17504       -9.81926        2.36163
C        -11.55732       -8.85162        1.44781
C        -12.85655       -8.84414        0.85943
C        -12.85935       -7.82830       -0.25998
C        -13.92663       -7.26871       -0.87159
C        -15.26787       -7.58692       -0.50752
N        -16.35432       -7.83876       -0.19074
C        -13.77111       -6.24541       -1.84979
N        -13.62913       -5.41551       -2.64812
C        -11.42472       -7.44628       -0.42402
C        -10.82283       -7.68688        0.89672
C        -10.24128       -6.75111        1.68429
C        -10.24995       -5.37366        1.31311
N        -10.34947       -4.24199        1.07292
C         -9.84386       -7.01869        3.02274
N         -9.50761       -7.23209        4.11367
C        -10.73465       -7.30614       -1.57676
C         -9.30031       -7.36157       -1.63187
S         -8.53027       -8.89839       -1.83814
C         -6.96497       -8.21768       -1.85302
C         -6.99313       -6.84637       -1.72245
C         -8.35139       -6.34511       -1.66267
C         -8.62738       -4.86384       -1.71194
C         -7.45369       -4.01515       -2.25432
C         -6.15008       -4.48295       -1.54839
C         -5.79262       -5.94445       -1.82007
C         -7.39176       -3.80384       -3.79702
C         -6.78922       -2.66884       -4.21776
C         -7.96242       -4.64990       -4.84087
S         -7.74281       -6.35347       -4.75449
C         -8.63017       -6.69169       -6.13387
C         -8.99187       -5.54228       -6.78538
C         -8.63883       -4.35621       -6.03616
C         -8.94545       -2.99401       -6.60022
C        -10.05417       -2.98097       -7.67707
C         -9.89534       -4.14742       -8.68840
C         -9.69168       -5.53970       -8.09977
C        -11.51065       -2.72904       -7.15085
C        -12.18799       -3.78354       -6.65900
C        -12.21859       -1.44307       -7.27248
S        -11.68484       -0.37928       -8.55446
C        -12.75884        0.85516       -8.15330
C        -13.59626        0.50411       -7.12537
C        -13.30994       -0.82922       -6.61520
C        -14.23217       -1.35792       -5.52346
C        -15.70839       -0.82065       -5.65457
C        -15.62756        0.72769       -5.58903
C        -14.72964        1.37049       -6.65159
C        -16.55657       -1.36934       -6.84721
C        -15.99343       -1.75327       -8.00815
C        -18.03836       -1.39445       -6.72912
C        -18.93498       -2.28177       -7.24408
C        -20.40997       -2.00715       -7.47855
C        -21.25840       -1.24886       -6.73504
C        -20.85610       -0.66544       -5.49794
N        -20.53315       -0.15604       -4.50337
C        -22.61869       -0.98727       -7.09634
N        -23.72848       -0.75465       -7.37454
C        -20.77013       -2.78012       -8.73073
C        -19.64967       -3.55094       -9.13506
C        -19.64551       -4.21382      -10.36075
C        -20.80588       -4.22297      -11.13355
C        -21.95154       -3.56473      -10.68760
C        -21.93292       -2.82708       -9.49837
C        -18.61710       -3.49013       -8.06031
C        -17.75103       -4.48950       -7.75866
C        -17.58193       -5.64571       -8.57943
N        -17.43644       -6.57064       -9.26328
C        -17.01133       -4.50508       -6.54226
N        -16.41614       -4.56675       -5.54647
H        -14.82884       -9.76828        0.93464
H        -14.19538      -11.36694        2.67864
H        -11.86781      -11.50339        3.50704
H        -10.15982       -9.88061        2.74130
H        -11.24082       -7.31033       -2.53966
H         -6.09350       -8.84045       -2.01610
H         -8.74974       -4.55543       -0.67532
H         -9.56007       -4.63852       -2.23819
H         -7.64615       -3.00702       -1.84925
H         -6.30352       -4.38072       -0.46195
H         -5.30194       -3.83167       -1.78705
H         -5.03633       -6.27588       -1.09785
H         -5.33701       -6.02581       -2.81419
H         -6.35775       -1.95163       -3.52539
H         -6.69840       -2.40055       -5.26441
H         -8.79606       -7.71571       -6.43832
H         -8.01919       -2.65937       -7.09387
H         -9.16695       -2.26747       -5.81251
H         -9.79849       -2.10543       -8.28306
H         -9.01285       -3.92712       -9.30647
H        -10.74210       -4.17489       -9.38458
H         -9.10736       -6.14234       -8.80917
H        -10.65308       -6.05356       -7.99112
H        -11.72600       -4.75366       -6.52594
H        -13.22830       -3.76743       -6.37680
H        -12.76127        1.77603       -8.72040
H        -13.81768       -1.01561       -4.56372
H        -14.27352       -2.44107       -5.46958
H        -16.22433       -1.14513       -4.73793
H        -15.22026        1.00340       -4.60426
H        -16.62261        1.18757       -5.62561
H        -14.31422        2.30589       -6.25186
H        -15.34471        1.64976       -7.51605
H        -14.92526       -1.77550       -8.16704
H        -16.56205       -2.05611       -8.87733
H        -18.39564       -0.49094       -6.23826
H        -18.77038       -4.72706      -10.74588
H        -20.82297       -4.75672      -12.08197
H        -22.86356       -3.60922      -11.28083
H        -22.85011       -2.31862       -9.22851
