120

C         -3.64154       -1.40180        1.82692
C         -2.58870       -2.12644        1.33935
C         -1.35613       -1.38615        1.10433
C         -0.06112       -1.76131        0.57782
C          0.20366       -3.16864        0.02018
C          1.34064       -3.76161       -0.53834
C          1.17819       -5.10514       -1.00781
C         -0.09771       -5.56099       -0.82047
S         -1.02910       -4.38462       -0.04509
C         -0.71530       -6.86868       -1.18306
Cl         2.45726       -5.98044       -1.73304
C          0.97962       -0.76696        0.56489
C          0.76154        0.56118        0.98564
C         -0.53051        0.91806        1.46112
C         -1.55792       -0.05365        1.52199
S         -3.18245        0.18067        2.12378
C         -0.82206        2.31816        1.92256
C         -1.95730        3.10466        1.74025
C         -1.89589        4.37567        2.38352
C         -0.67991        4.59254        2.98579
S          0.27990        3.17982        2.94073
C         -0.18691        5.82266        3.67343
Cl        -3.20874        5.47510        2.36467
C          1.97044        1.35956        0.82089
C          3.07153        0.67527        0.36479
S          2.64702       -0.93005        0.08134
C          4.41482        1.17115        0.14235
C          5.32846        0.78653       -0.81104
C          6.58339        1.52627       -0.78819
C          7.68717        1.50443       -1.67940
C          7.58645        0.69763       -2.93374
C          6.50718        0.50026       -3.78673
C          6.81415       -0.30477       -4.92466
C          8.14216       -0.65971       -4.96668
S          8.91324       -0.26330       -3.49565
C          8.89759       -1.34427       -6.05770
Cl         5.63990       -0.70677       -6.10285
C          8.84436        2.26681       -1.39588
C          9.00302        2.93769       -0.16993
C          7.86668        3.03884        0.71450
C          6.65697        2.35688        0.34615
S          5.08819        2.38871        1.10087
C          7.93838        3.84134        2.01378
C          7.00071        4.08156        3.02183
C          7.48415        4.81540        4.15070
C          8.81487        5.11136        4.03235
S          9.35237        4.73520        2.47433
C          9.74677        5.71428        5.02644
Cl         6.49251        5.19648        5.49096
C         10.39701        3.34532       -0.06254
C         11.15303        3.23721       -1.20523
S         10.20555        2.58750       -2.44019
C         12.53038        3.65197       -1.37027
C         13.16195        4.72777       -0.73632
C         14.51604        4.83451       -1.12657
C         14.85983        3.83278       -2.00479
S         13.63260        2.78945       -2.40117
C         16.22252        3.97466       -2.34699
C         16.73918        5.07203       -1.69827
C         15.68710        5.68194       -0.87548
C         15.77813        6.75567       -0.06989
C         14.65856        7.22703        0.68178
N         13.74967        7.60249        1.28940
C         16.99533        7.47440        0.09773
N         17.97796        8.07451        0.22510
C         18.10140        5.26430       -2.01769
C         18.57895        4.27402       -2.88647
S         17.30604        3.14030       -3.28263
C         19.94673        4.06712       -3.44471
C         20.08767        3.52497       -4.73040
C         21.34536        3.28469       -5.27023
C         22.51893        3.58975       -4.55962
C         22.39371        4.14761       -3.27224
C         21.10648        4.39450       -2.71044
N         21.00907        4.93554       -1.46952
C         22.13757        5.24198       -0.78686
C         23.38415        4.98738       -1.32774
N         23.50460        4.44295       -2.55841
C         24.66113        5.31351       -0.61812
C         21.96354        5.85722        0.56692
C         23.82916        3.29556       -5.19727
N         23.83965        2.24672       -6.05911
N         24.98461        1.88471       -6.72883
C         26.11657        2.57785       -6.52251
C         26.16632        3.65453       -5.66559
C         24.99884        4.02476       -5.00292
H         -4.63897       -1.76039        2.04483
H         -2.75750       -3.17581        1.17479
H          2.29917       -3.28862       -0.65543
H         -0.24825       -7.29502       -2.07605
H         -1.78397       -6.75913       -1.40188
H         -0.60901       -7.58466       -0.36167
H         -2.83304        2.78320        1.19053
H         -0.39780        6.71408        3.07087
H          0.89465        5.79704        3.84257
H         -0.68275        5.94074        4.64184
H          2.03144        2.41580        1.04246
H          5.09841        0.01792       -1.53791
H          5.52634        0.92826       -3.62274
H          8.59082       -2.39069       -6.14350
H          9.98044       -1.31636       -5.89390
H          8.70814       -0.85130       -7.01893
H          5.98203        3.73623        3.02289
H          9.49406        6.76148        5.21435
H         10.79025        5.66901        4.69422
H          9.68949        5.16655        5.97383
H         10.87117        3.72867        0.82459
H         12.64289        5.38101       -0.04424
H         18.73806        6.05689       -1.64226
H         19.22035        3.27531       -5.33851
H         21.40563        2.84689       -6.26744
H         24.69128        4.83618        0.36560
H         24.76630        6.39656       -0.50311
H         25.52320        4.95168       -1.18939
H         20.90398        6.02739        0.78349
H         22.47470        6.82370        0.61765
H         22.36478        5.19393        1.33922
H         26.98512        2.23928       -7.07445
H         27.08932        4.20166       -5.51204
H         25.02482        4.88498       -4.34298
