112

C          7.65992        4.16098       -1.45285
C          8.41469        4.45566       -2.53649
C          9.34555        3.52443       -3.07987
N         10.09478        2.75306       -3.51579
C          8.37980        5.74290       -3.15106
N          8.32431        6.78477       -3.66051
C          7.70443        2.91612       -0.64022
C          7.32058        3.25112        0.66598
C          7.13210        2.33961        1.68270
C          7.22261        0.99468        1.35357
C          7.57698        0.59921        0.02812
C          7.85213        1.57521       -0.96196
C          7.57881       -0.77097       -0.27041
C          7.21441       -1.71511        0.69596
C          6.86402       -1.31143        1.98182
C          6.88149        0.03856        2.31362
C          6.83678        4.63008        0.72884
O          6.43584        5.18468        1.72967
C          6.79280        5.08427       -0.69992
C          5.87551        5.94851       -1.16333
C          4.87715        6.66369       -0.38197
C          5.07890        7.58232        0.60054
N          6.36942        8.02151        1.11091
O          6.34450        8.78858        2.08565
O          7.40700        7.67292        0.52938
C          3.83975        8.21917        0.99716
C          2.84705        7.76762        0.21667
C          3.40270        6.76754       -0.69143
C          2.68510        6.04070       -1.57972
C          3.09382        4.71175       -2.03983
C          2.13123        4.24166       -2.84485
C          1.11345        5.26124       -2.98798
N          0.00759        5.08725       -3.89630
O         -0.27309        6.01005       -4.66949
O         -0.52867        3.96969       -3.90191
C          1.35818        6.35072       -2.22513
C          0.60875        7.59688       -2.13312
C          0.44497        8.51276       -3.10616
C         -0.14444        9.80214       -2.87643
S         -0.71761       10.72980       -4.21452
C         -1.02376       12.19059       -3.28187
C         -0.80306       11.88986       -1.95486
C         -0.34091       10.54872       -1.73704
C         -0.09255       10.29524       -0.29213
C         -0.09269       11.70275        0.33083
C         -0.86896       12.61588       -0.64931
C         -1.47902       13.38038       -4.05454
C         -0.88747       13.66359       -5.30625
C          0.50291       13.39525       -5.67838
O          1.42377       13.42439       -4.88167
S          0.69764       13.39210       -7.40967
C         -0.77872       14.31792       -7.59145
O         -1.17296       14.74056       -8.66148
C         -1.48744       14.43498       -6.30437
C         -2.61584       15.19390       -6.02204
C         -3.13061       15.04803       -4.73149
C         -2.60401       14.16967       -3.78778
C         -3.42095       14.34844       -2.59234
O         -3.27567       13.84261       -1.50418
O         -4.36846       15.26943       -2.88961
C         -4.25889       15.74966       -4.14160
O         -4.95438       16.60638       -4.64970
C         -3.12960       16.19072       -6.95451
C         -4.10334       15.94526       -7.84313
C         -4.54705       16.98602       -8.75042
C         -5.52655       16.92604       -9.66518
C         -5.93090       17.94625      -10.66322
C         -5.77468       19.29170      -10.56507
C         -6.26811       20.19408      -11.55027
N         -6.66292       20.93460      -12.34963
C         -5.15636       19.92928       -9.45628
N         -4.62499       20.47103       -8.56304
C         -6.69741       17.21607      -11.72386
C         -6.93743       15.91121      -11.27395
C         -6.31653       15.68469       -9.96383
O         -6.44696       14.68015       -9.29478
C         -7.63341       14.95894      -12.00361
C         -8.12448       15.31637      -13.26182
C         -7.89016       16.62675      -13.76154
C         -7.16573       17.56456      -12.98704
C         -8.39364       16.96194      -15.02974
C         -9.11462       16.03361      -15.78583
C         -9.33797       14.75242      -15.29111
C         -8.84250       14.39416      -14.03785
H          6.80928        2.67945        2.66268
H          8.07613        1.25733       -1.97734
H          7.83442       -1.12005       -1.26868
H          7.19257       -2.77171        0.44132
H          6.56494       -2.04470        2.72634
H          6.59033        0.34055        3.31826
H          5.76149        6.09155       -2.23692
H          3.75005        8.91198        1.82109
H          1.80817        7.99522        0.36594
H          3.93151        4.13532       -1.68239
H          2.07616        3.25651       -3.28445
H          0.21623        7.79346       -1.14235
H          0.80975        8.30819       -4.11260
H          0.87163        9.82358       -0.11533
H         -0.89049        9.67349        0.12903
H          0.93993       12.05760        0.42845
H         -0.53482       11.70007        1.33326
H         -0.42269       13.61199       -0.69530
H         -1.89108       12.67231       -0.27615
H         -2.67014       17.17543       -6.88243
H         -4.56086       14.96220       -7.90385
H         -3.95323       17.89159       -8.66436
H         -7.77631       13.96192      -11.59634
H         -6.98603       18.54483      -13.41553
H         -8.23551       17.95674      -15.44248
H         -9.50395       16.31262      -16.76216
H         -9.89970       14.03074      -15.87939
H         -9.02632       13.38636      -13.67022
