100

C          2.18984       -2.12619        6.42858
S          1.92465       -0.66852        7.27604
C          2.82259        0.26594        6.13014
C          3.29700       -0.55703        5.11255
C          2.91917       -1.93537        5.27657
C          3.31996       -3.00327        4.30228
C          3.54313       -2.47009        2.90284
O          3.65101       -3.20660        1.92794
C          3.69662       -0.95379        2.72730
O          3.49786       -0.43765        1.63631
C          4.13793       -0.17086        3.93946
C          2.99692        1.66449        6.37790
C          3.94369        2.16834        7.21221
N          4.96907        1.40885        7.89240
O          5.40381        1.88811        8.94932
O          5.41022        0.38668        7.35124
C          3.85912        3.60597        7.32843
C          2.88426        4.04127        6.52072
C          2.30945        2.88712        5.81948
C          1.36340        2.99502        4.85610
C          0.57877        1.87825        4.33729
C         -0.24141        2.35724        3.39169
C         -0.00768        3.77779        3.23673
N         -0.59024        4.49858        2.11570
O         -0.73586        3.85703        1.06606
O         -0.97310        5.66223        2.26688
C          0.91341        4.23860        4.11554
C          1.54601        5.55746        4.13161
C          0.91816        6.74010        4.04564
C          1.56372        8.01570        4.03243
N          1.57016        8.87513        2.93183
C          0.90731        8.65571        1.66134
C         -0.48653        9.26434        1.64548
C          2.20224       10.09981        3.23305
O          2.36023       11.09192        2.55584
C          2.59412        9.91292        4.63746
C          2.17397        8.60854        5.05813
C          2.52498        8.44873        6.47567
O          2.31530        7.48213        7.18010
N          3.14314        9.67863        6.77802
C          3.63874        9.97992        8.10332
C          5.00550        9.36260        8.34854
C          3.16959       10.52211        5.66886
C          3.71378       11.84223        5.65349
C          5.03020       12.08385        5.71759
C          5.60925       13.42762        5.66608
C          6.81109       13.66283        6.33804
C          7.39108       14.93675        6.28678
N          8.65000       15.12605        6.98125
O          9.59210       14.39940        6.63782
O          8.67862       15.96448        7.89173
C          6.81122       15.98722        5.56567
C          5.61760       15.73318        4.87985
C          5.02820       14.46579        4.92394
C          7.42650       17.30345        5.39784
C          7.22261       18.33866        6.23086
C          7.82535       19.61603        5.99207
S          8.07413       20.17453        4.37348
C          8.80083       21.61403        4.88603
C          8.82917       21.72845        6.25646
C          8.24232       20.58412        6.90631
C          8.15100       20.47876        8.40519
C          8.62906       21.71632        9.12463
O          8.25679       22.01940       10.25729
C          9.67009       22.57284        8.42604
O         10.61300       23.03435        9.05713
C          9.40200       22.89587        6.98579
H          1.79562       -3.05774        6.81709
H          2.53784       -3.76869        4.24629
H          4.25173       -3.47328        4.63450
H          4.05467        0.89619        3.72223
H          5.19127       -0.40547        4.13146
H          4.44104        4.21117        8.00813
H          2.53595        5.06053        6.48931
H          0.57385        0.86093        4.69060
H         -0.98066        1.80716        2.82837
H          2.63038        5.55165        4.24056
H         -0.16209        6.81165        3.98038
H          0.87235        7.58562        1.43637
H          1.50763        9.13239        0.87701
H         -1.11017        8.84659        2.44209
H         -0.97771        9.07441        0.68655
H         -0.44157       10.34880        1.79448
H          2.92897        9.56676        8.82958
H          3.66761       11.06322        8.25899
H          4.97074        8.27352        8.24018
H          5.35073        9.59516        9.36003
H          5.74643        9.74047        7.63841
H          2.98916       12.64326        5.52650
H          5.73309       11.25978        5.82007
H          7.29695       12.86429        6.89595
H          5.14629       16.50973        4.27841
H          4.11922       14.29839        4.34718
H          8.06804       17.37925        4.52264
H          6.60768       18.21585        7.12006
H          9.17098       22.31658        4.15170
H          8.75044       19.63293        8.76024
H          7.10453       20.31833        8.69185
H         10.34778       23.19428        6.51710
H          8.70933       23.74314        6.94388
