80

C         -3.50151        6.32509        4.59757
C         -3.22625        7.62800        4.33030
C         -2.88466        8.58115        5.33437
N         -2.60795        9.37132        6.13758
C         -3.21745        8.17385        3.01504
N         -3.21293        8.63060        1.94780
C         -3.42447        5.67797        5.95044
C         -3.56274        4.29838        5.79620
C         -3.47289        3.38163        6.84105
C         -3.22840        3.87788        8.14160
C         -3.13237        5.26592        8.31726
C         -3.24230        6.18093        7.23742
S         -2.86558        5.66626        9.97747
C         -2.84218        4.04146       10.43158
C         -3.04892        3.18184        9.38583
Br        -2.56003        3.47421       12.19524
C         -3.82817        3.94901        4.39475
O         -4.06296        2.82295        4.00703
C         -3.80923        5.24031        3.61954
C         -4.09346        5.29619        2.30613
C         -4.32607        4.19104        1.39067
C         -5.44827        4.03145        0.63839
O         -5.57691        2.97512       -0.27898
C         -4.52010        2.14307       -0.37752
C         -3.35984        2.31197        0.40034
C         -2.40658        1.35969        0.15502
S         -2.94182        0.25793       -1.05759
C         -4.44871        1.07212       -1.23061
O         -3.22822        3.32496        1.28840
C         -6.60117        4.92014        0.65378
C         -7.84214        4.51083        0.34712
C         -9.01602        5.36396        0.35526
C        -10.27251        4.96085        0.10143
C        -11.43366        5.81831        0.14540
C        -12.59022        5.17551       -0.07671
C        -12.43672        3.74958       -0.32294
S        -10.72783        3.32569       -0.30777
C        -13.42043        2.84803       -0.50877
C        -14.84847        3.10299       -0.47113
C        -15.60321        2.00073       -0.58800
C        -14.83623        0.78110       -0.73806
S        -13.12738        1.13170       -0.79801
C        -15.37792       -0.44399       -0.80950
C        -14.60300       -1.62290       -0.92130
S        -14.27906       -2.45951       -2.39671
C        -13.30509       -3.69457       -1.62678
C        -13.27822       -3.40776       -0.30050
C        -13.99479       -2.29274        0.07724
O        -14.00575       -1.97138        1.40303
C        -13.18494       -2.97602        1.87945
N        -12.93330       -2.94888        3.29108
O        -12.17417       -3.82593        3.72604
O        -13.49281       -2.07566        3.96488
C        -12.71904       -3.87078        0.90867
C        -12.70517       -4.77181       -2.37292
S        -12.49397       -6.33148       -1.68583
C        -11.76713       -6.95742       -3.10167
C        -11.28813       -8.32456       -3.17686
O        -10.42478       -8.72916       -3.94173
O        -11.94269       -9.15971       -2.32860
C        -11.68761       -5.99485       -4.08729
C        -12.24954       -4.74887       -3.67833
H         -3.57857        2.31630        6.65442
H         -3.16904        7.23674        7.46401
H         -3.06951        2.10340        9.48679
H         -4.14947        6.24066        1.77816
H         -1.43427        1.24700        0.61209
H         -5.18958        0.72477       -1.93809
H         -6.42940        5.95404        0.93772
H         -7.99573        3.46201        0.09744
H         -8.84359        6.40982        0.60050
H        -11.36526        6.87776        0.35012
H        -13.54845        5.67369       -0.07061
H        -15.26856        4.08829       -0.33063
H        -16.68448        2.00756       -0.55632
H        -16.45487       -0.56616       -0.76216
H        -12.06285       -4.71233        1.08344
H        -12.64494       -8.69511       -1.83425
H        -11.25633       -6.18446       -5.06491
H        -12.29076       -3.87328       -4.31659
