71

C         -1.18127      -20.87845       -2.22245
C         -0.31962      -20.75298       -3.23355
C          0.20055      -21.82344       -4.04231
C          1.12275      -21.42530       -4.93113
C          1.41856      -20.00714       -4.86329
S          0.32970      -19.21776       -3.70854
C          2.42723      -19.36651       -5.48083
C          3.42613      -19.90956       -6.37996
C          4.49123      -19.10497       -6.54719
C          4.40393      -17.86589       -5.79349
S          2.79503      -17.69322       -5.15469
C          5.43580      -17.03403       -5.55860
C          5.41363      -15.86099       -4.74399
S          6.77438      -15.37149       -3.77717
C          5.96959      -13.94671       -3.08858
C          4.75235      -13.89663       -3.68068
C          4.47300      -14.91248       -4.57159
N          3.24288      -14.77073       -5.13957
N          2.61295      -13.66133       -4.65351
C          3.53801      -13.12792       -3.79927
C          6.70834      -13.15023       -2.16920
C          6.24337      -12.36339       -1.18456
C          4.86564      -12.08832       -0.75558
C          4.11013      -12.90693        0.09553
C          2.73066      -12.61385        0.40684
N          2.03758      -13.52021        1.12924
C          2.68952      -14.56839        1.70556
C          4.03258      -14.75341        1.52796
N          4.73806      -13.95940        0.67762
C          4.79919      -15.68475        2.31500
N          5.39636      -16.40398        2.99662
C          1.89670      -15.39248        2.56993
N          1.28362      -16.07438        3.28310
C          2.10043      -11.38939        0.03834
C          2.91771      -10.46077       -0.68519
C          4.30987      -10.83445       -1.11301
N          4.91724       -9.87598       -1.83519
S          3.86990       -8.60297       -1.93213
N          2.60862       -9.20358       -1.05357
C          0.69354      -11.00935        0.39213
S         -0.28228      -10.28731       -0.85227
C         -1.62687      -10.04236        0.16997
C         -1.45543      -10.68682        1.37627
C         -0.08721      -11.16274        1.54094
C          0.42992      -11.72598        2.71126
S         -0.66917      -12.08913        4.06175
C         -2.23617      -11.45942        3.52462
C         -2.49193      -10.80623        2.31856
C         -2.81392       -9.18683       -0.32814
O         -4.14897       -9.50309        0.15166
C         -4.30326       -8.19324        0.73705
C         -2.88755       -7.79997        0.35311
H         -1.57132      -21.84356       -1.92268
H         -1.51222      -20.01284       -1.65464
H         -0.11693      -22.84829       -3.91810
H          1.63508      -22.10159       -5.59936
H          3.33368      -20.88143       -6.84438
H          5.34925      -19.36166       -7.15444
H          6.41151      -17.32430       -5.94719
H          2.76286      -15.43217       -5.74291
H          3.27277      -12.20050       -3.31997
H          7.79399      -13.18970       -2.27229
H          6.98215      -11.81778       -0.59731
H          1.46618      -11.98131        2.86625
H         -3.06500      -11.60292        4.21549
H         -3.50574      -10.47040        2.13807
H         -2.80797       -9.06919       -1.42006
H         -4.49248       -8.24931        1.81345
H         -5.10327       -7.62619        0.25322
H         -2.22068       -7.62364        1.20186
H         -2.83027       -6.94865       -0.33254
