93

C          2.79089       -6.72873       10.14537
C          1.53526       -6.44454        9.64848
C          1.11513       -6.79558        8.30926
N         -0.17797       -6.57463        7.98598
C         -0.92873       -5.77571        8.80943
C         -0.46578       -5.35971       10.03416
N          0.74379       -5.76592       10.49347
C         -1.17572       -4.43349       10.86936
N         -1.75452       -3.67144       11.52510
C         -2.17290       -5.30644        8.26181
N         -3.16590       -4.91209        7.82153
C          2.02342       -7.28221        7.31464
C          3.37616       -7.41223        7.78005
C          3.73321       -7.20613        9.22407
N          5.00816       -7.49822        9.51369
S          5.72957       -7.92565        8.08657
N          4.46726       -7.67534        7.03513
C          1.67274       -7.57789        5.87778
C          2.27961       -8.60601        5.10525
C          3.14342       -9.69910        5.58350
O          3.09825      -10.15600        6.71157
S          4.06944      -10.40851        4.28520
C          3.00239       -9.70471        3.09681
O          3.09400       -9.92020        1.90287
C          2.03956       -8.78424        3.72536
C          1.00172       -8.12031        3.07360
C          0.31202       -7.20582        3.85707
C          0.71041       -6.85922        5.14038
C          0.01835       -5.59925        5.40654
O          0.35465       -4.73039        6.18551
O         -0.99355       -5.51499        4.50952
C         -0.88694       -6.44920        3.53804
O         -1.66033       -6.64528        2.62605
C          0.67664       -8.31037        1.65954
C         -0.16513       -9.25627        1.21361
C         -0.44456       -9.43295       -0.20130
C         -0.24511      -10.58770       -0.88441
O         -0.47376      -10.70311       -2.25839
C         -1.03836       -9.62311       -2.83822
C         -1.34356       -8.45439       -2.11178
C         -2.04436       -7.53809       -2.85164
S         -2.21202       -8.07037       -4.48219
C         -1.38224       -9.54440       -4.16200
O         -1.00829       -8.30305       -0.80921
C          0.17918      -11.81909       -0.26417
C         -0.55930      -12.93844       -0.33274
C         -0.21127      -14.08098        0.43405
S         -1.41834      -15.18065        0.93021
C         -0.30274      -16.16045        1.80369
C          0.99702      -15.67011        1.70476
C          1.02391      -14.48177        0.90083
C          2.18130      -16.30617        2.31403
O          2.20363      -17.52737        2.50010
C          3.38333      -15.42498        2.69295
F          3.21536      -14.09042        2.46252
F          3.69077      -15.52373        4.01793
F          4.51381      -15.77584        2.01457
C         -0.83843      -17.30517        2.45892
C         -1.22752      -17.24839        3.74321
C         -1.85451      -18.37782        4.41000
C         -1.87774      -18.62651        5.73085
C         -2.39956      -19.79971        6.47770
C         -3.40217      -20.64053        6.09226
C         -3.89366      -21.69123        6.92227
N         -4.29251      -22.54267        7.59687
C         -4.08358      -20.51306        4.85096
N         -4.64200      -20.41994        3.83678
C         -1.72930      -19.79033        7.81571
C         -1.03481      -18.58731        7.95123
C         -1.13453      -17.78198        6.72949
O         -0.68856      -16.65946        6.60680
C         -0.31886      -18.21777        9.08653
C         -0.28801      -19.12187       10.16988
C         -0.95634      -20.34796       10.03659
C         -1.67143      -20.70639        8.86264
S         -0.78060      -21.30611       11.46574
C          0.14036      -20.11578       12.23005
C          0.34621      -19.00671       11.45449
Br         0.81569      -20.29807       13.96804
H          3.06496       -6.51829       11.17338
H          1.17220       -7.63981        0.95830
H         -0.65336       -9.95233        1.89093
H         -2.46564       -6.59612       -2.53111
H         -1.21896      -10.27367       -4.94297
H          1.06984      -11.75031        0.35602
H         -1.47987      -12.95698       -0.91405
H          1.92120      -13.92603        0.65495
H         -0.94971      -18.21241        1.87079
H         -1.10101      -16.32654        4.30758
H         -2.31554      -19.07139        3.71157
H          0.19850      -17.26296        9.12951
H         -2.14228      -21.68162        8.82834
H          0.91740      -18.14338       11.77464
