111

C          3.91538        0.77148       -4.71547
C          5.22588        0.57932       -4.45907
C          5.92227       -0.56978       -4.92658
N          6.48056       -1.51427       -5.30598
C          5.95571        1.47710       -3.62560
N          6.52015        2.23009       -2.94845
C          2.99795       -0.12477       -5.47761
C          1.69043        0.11734       -5.02715
C          0.55761       -0.34984       -5.66756
C          0.73188       -1.01259       -6.88249
C          2.04415       -1.30350       -7.36084
C          3.18014       -0.87931       -6.62999
C          2.17367       -1.93257       -8.60970
C          1.04991       -2.20781       -9.39534
C         -0.22239       -1.87427       -8.94078
C         -0.38206       -1.29948       -7.68187
C          1.68074        1.23304       -4.06550
O          0.73296        1.63717       -3.42654
C          3.05133        1.83872       -4.17820
C          3.24890        3.17278       -4.23753
C          2.18316        4.16834       -4.18122
C          1.15096        4.31139       -5.06256
N          0.97895        3.58683       -6.31043
O         -0.04530        3.83338       -6.96321
O          1.85782        2.79791       -6.68043
C          0.15327        5.24073       -4.58285
C          0.57308        5.74337       -3.41652
C          1.93420        5.25273       -3.17190
C          2.79085        5.80012       -2.27926
C          4.09833        5.26877       -1.90500
C          4.63330        6.08125       -0.97916
C          3.72027        7.17228       -0.73703
N          4.02180        8.25488        0.18260
O          4.81284        7.99465        1.10072
O          3.50201        9.36777        0.00785
C          2.61708        7.07353       -1.51564
C          1.58464        8.07549       -1.61633
C          1.28518        8.74767       -2.73961
C          0.37780        9.85866       -2.89438
N         -0.24478       10.56524       -1.86080
C         -0.04152       10.47895       -0.43239
C         -1.02640        9.53990        0.24772
C         -1.05046       11.60073       -2.35076
O         -1.71157       12.39191       -1.71288
C         -0.84598       11.53193       -3.80790
C          0.04870       10.43455       -4.06409
C          0.28054       10.39332       -5.52458
O          0.99640        9.61881       -6.12739
N         -0.50122       11.47111       -6.00791
C         -0.50725       11.83269       -7.41960
C         -1.57864       11.10979       -8.22382
C         -1.17027       12.12484       -4.96047
C         -2.05567       13.24613       -5.15274
C         -2.67188       13.92859       -4.17306
C         -3.57850       14.96796       -4.46090
O         -4.30178       15.00397       -5.62449
C         -5.07741       16.12183       -5.48648
N         -4.81130       16.75196       -4.35993
N         -3.87424       16.00012       -3.69217
C         -5.96834       16.50963       -6.50501
C         -7.23448       16.07659       -6.55165
C         -8.24849       16.27878       -7.60244
C         -8.29043       17.31078       -8.47787
C         -9.35788       17.46933       -9.40137
N        -10.23009       17.60624      -10.17123
C         -7.31628       18.33902       -8.54534
N         -6.50829       19.16696       -8.60872
C         -9.29289       15.22554       -7.39869
C         -9.04369       14.59307       -6.17391
C         -7.82050       15.11562       -5.55678
O         -7.39280       14.78490       -4.47234
C         -9.82457       13.57087       -5.65757
C        -10.92251       13.13763       -6.40401
C        -11.20114       13.74199       -7.66125
C        -10.37103       14.77733       -8.15371
C        -12.31205       13.29013       -8.39217
C        -13.12990       12.27007       -7.89898
C        -12.84655       11.67867       -6.67151
C        -11.74779       12.10824       -5.92845
H         -0.42682       -0.06687       -5.30631
H          4.16819       -1.03085       -7.05707
H          3.15672       -2.17581       -9.00781
H          1.17007       -2.65904      -10.37727
H         -1.09128       -2.04390       -9.57197
H         -1.38315       -1.02414       -7.35481
H          4.21547        3.57234       -4.53974
H         -0.81646        5.38913       -5.03380
H         -0.03038        6.34615       -2.75763
H          4.56014        4.36504       -2.25961
H          5.59343        5.97525       -0.49761
H          1.12724        8.29235       -0.66308
H          1.76859        8.43653       -3.66825
H         -0.16510       11.47913       -0.00009
H          0.99662       10.22591       -0.21884
H         -2.05537        9.89777        0.14093
H         -0.79566        9.47132        1.31522
H         -0.99244        8.53050       -0.17315
H          0.47071       11.57359       -7.84352
H         -0.61335       12.91719       -7.53147
H         -1.45294       10.02409       -8.16447
H         -1.51875       11.39668       -9.28028
H         -2.58254       11.35525       -7.86465
H         -2.24182       13.54764       -6.18013
H         -2.54886       13.73850       -3.12167
H         -5.50636       17.10163       -7.28127
H         -9.56965       13.12357       -4.70010
H        -10.59974       15.19095       -9.13088
H        -12.55943       13.73460       -9.35453
H        -13.99120       11.93825       -8.47395
H        -13.48232       10.88354       -6.28954
H        -11.54314       11.63228       -4.97118
