104

C          4.42421        4.57846       -8.04015
C          5.17730        4.38580       -9.14199
C          5.01870        3.21996       -9.94587
N          4.89012        2.24176      -10.55576
C          6.29694        5.22064       -9.42255
N          7.21155        5.90666       -9.62312
C          3.39538        3.64008       -7.48621
C          3.49432        3.72833       -6.09599
C          2.55684        3.20549       -5.22745
C          1.47283        2.52464       -5.76181
C          1.42220        2.27794       -7.16472
C          2.39886        2.84735       -8.02490
C          0.37082        1.49689       -7.64943
C         -0.64847        1.04914       -6.80028
C         -0.63446        1.37304       -5.44716
C          0.43135        2.09584       -4.92389
C          4.67290        4.53887       -5.78823
O          5.63415        4.20534       -5.12545
C          4.75517        5.47448       -6.91106
C          4.87421        6.80226       -6.79035
C          4.89554        7.67932       -5.58773
C          5.13448        9.02941       -5.67838
N          5.43005        9.78058       -6.88601
O          4.76985        9.54445       -7.90682
O          6.25415       10.69842       -6.77694
C          4.80885        9.76385       -4.48154
C          4.23670        8.92906       -3.61552
C          4.21669        7.57120       -4.20094
C          3.76211        6.58987       -3.37722
C          4.31596        5.29275       -3.03642
C          3.42389        4.60649       -2.30033
C          2.26730        5.43922       -2.09647
N          1.03304        4.97217       -1.48625
O          1.05360        3.82955       -1.00653
O          0.02586        5.69013       -1.51924
C          2.47352        6.66774       -2.60953
C          1.59079        7.78013       -2.45673
C          1.08549        8.49050       -3.46964
C          0.30258        9.70101       -3.24735
C         -0.13770       10.08317       -1.97301
C         -0.81583       11.27455       -1.78841
C         -1.06443       12.10099       -2.88092
C         -0.67211       11.70525       -4.16293
C          0.01532       10.51280       -4.34619
C         -1.80757       13.34313       -2.74515
C         -1.80236       14.09888       -1.64434
C         -2.59248       15.26685       -1.52901
S         -2.18259       16.37036       -0.26652
C         -3.65715       17.26107       -0.37460
C         -4.22163       16.93186       -1.58609
C         -3.64687       15.79916       -2.22722
C         -4.39090       15.47981       -3.43453
O         -4.24568       14.53199       -4.19085
C         -5.42636       16.58054       -3.64061
C         -5.34324       17.42667       -2.35592
O         -6.06954       18.34680       -2.06116
C         -4.05699       18.22154        0.61315
C         -3.97172       18.05227        1.94957
C         -4.60978       18.85549        3.03184
C         -4.60025       20.20161        3.12776
C         -5.08136       20.87859        4.29352
N         -5.45464       21.42019        5.24639
C         -4.02688       21.02659        2.12309
N         -3.56313       21.68346        1.28235
C         -5.05751       17.86195        4.06612
C         -4.46522       16.63585        3.74570
C         -3.53187       16.80171        2.64558
O         -2.51960       16.14435        2.54105
C         -4.73140       15.43335        4.36804
C         -5.63035       15.44813        5.42313
C         -6.18689       16.68458        5.86366
C         -5.90702       17.89053        5.16188
C         -7.01626       16.65913        6.99511
C         -7.32408       15.45261        7.63551
C         -6.82448       14.24725        7.14962
C         -5.97502       14.24507        6.04920
H          2.62564        3.35336       -4.16826
H          2.31512        2.69694       -9.09728
H          0.32447        1.23549       -8.70366
H         -1.46697        0.45822       -7.20314
H         -1.44725        1.05760       -4.79702
H          0.42962        2.33570       -3.86094
H          4.87472        7.32636       -7.74577
H          5.00987       10.81376       -4.32299
H          3.94782        9.19130       -2.60729
H          5.32292        4.95671       -3.20780
H          3.54232        3.61461       -1.88775
H          1.38901        8.02252       -1.41771
H          1.30585        8.22819       -4.50120
H          0.02722        9.47317       -1.09134
H         -1.15118       11.52864       -0.78681
H         -0.89701       12.32711       -5.02639
H          0.32562       10.23557       -5.35030
H         -2.36431       13.61108       -3.62914
H         -1.18567       13.81831       -0.79112
H         -6.41629       16.13635       -3.75848
H         -5.12743       17.17578       -4.50756
H         -4.59486       19.08256        0.21868
H         -4.25441       14.52262        4.01797
H         -6.38417       18.80896        5.49197
H         -7.42795       17.58202        7.39810
H         -7.96199       15.45272        8.51573
H         -7.08438       13.30886        7.63275
H         -5.58465       13.29674        5.68365
