104

C          9.52963       -4.53823       -8.97784
O          9.46306       -3.22370       -8.62733
C         10.75052       -2.77129       -8.35994
C         11.59454       -3.85715       -8.55792
C         10.82825       -4.95594       -8.94468
F         11.26141       -6.15101       -9.22345
F         12.89037       -3.86037       -8.41401
C         11.00166       -1.42193       -7.97669
C         12.24160       -0.97008       -7.73276
C         12.52140        0.42132       -7.38183
C         12.50668        0.86300       -6.05964
C         12.23093        0.17504       -4.78743
O         11.94063       -1.00277       -4.70098
N         12.37880        1.11142       -3.78194
C         12.73584        2.33306       -4.29503
O         12.97084        3.40656       -3.77122
C         12.81111        2.17865       -5.73610
C         13.13725        3.14111       -6.66784
C         13.14956        2.71137       -7.98573
C         12.85523        1.39053       -8.34520
C         12.97453        1.19892       -9.79931
O         12.80912        0.14647      -10.38402
S         13.41007        2.69039      -10.61571
C         13.47869        3.57059       -9.11479
O         13.76356        4.74919       -9.00497
C         12.16995        0.82522       -2.45012
C         12.31203        1.70848       -1.45123
C         12.01907        1.42408       -0.06366
C         12.69502        0.43534        0.56883
C         12.37584        0.11547        1.94115
C         12.88658       -0.81729        2.78911
C         14.08584       -1.73806        2.66364
C         13.71668       -3.08671        2.00075
N         13.31699       -3.00362        0.59452
C         15.32542       -1.04793        2.02524
N         16.53120       -1.88542        1.97350
C         11.99456       -0.76897        3.95576
C         11.91292       -1.53982        5.05145
C         10.84134       -1.31380        6.11780
C          9.87681       -0.17589        5.81272
C          9.98243        0.60958        4.73075
C         11.01275        0.29845        3.78269
C         11.25984        0.83659        2.58485
C         10.62159        1.93904        1.91396
C         11.00770        2.21932        0.65729
C         11.40496       -1.06813        7.49724
C         12.65303       -0.69171        7.81834
C         13.11930       -0.46900        9.19231
C         13.96916        0.61791        9.46577
C         14.55938        1.68355        8.62637
O         14.35856        1.80167        7.42884
N         15.34884        2.47495        9.44227
C         15.30428        2.01930       10.74080
O         15.83288        2.41220       11.76264
C         14.44278        0.84976       10.75267
C         14.13653        0.05720       11.83617
C         13.31869       -1.02810       11.57356
C         12.82133       -1.31188       10.29300
C         12.04745       -2.57638       10.32233
O         11.56965       -3.16081        9.37036
S         11.90251       -3.22354       11.94985
C         12.92434       -1.98255       12.60141
O         13.27562       -1.90614       13.76467
C         16.07966        3.56052        8.99704
C         16.84841        4.34192        9.77730
C         17.56823        5.45420        9.27299
O         17.98705        5.59973        7.96585
C         18.68571        6.78797        7.83047
C         18.67612        7.40114        9.06794
C         18.01508        6.56508        9.96261
F         17.83357        6.79288       11.23299
F         19.22594        8.54726        9.35580
C         19.27857        7.23313        6.62071
C         19.64123        6.35982        5.67390
H          8.59032       -5.01495       -9.21525
H         10.13628       -0.76956       -7.90504
H         13.11491       -1.61247       -7.80621
H         13.37373        4.16161       -6.38058
H         11.84527       -0.19517       -2.24105
H         12.61110        2.73803       -1.62339
H         13.41079       -0.17335        0.03594
H         14.40760       -1.98275        3.68705
H         12.90134       -3.55641        2.56344
H         14.56713       -3.77499        2.07406
H         14.06095       -2.59438        0.03661
H         13.16504       -3.94459        0.23308
H         15.56906       -0.14882        2.60425
H         15.13181       -0.71995        1.00354
H         17.29907       -1.32535        1.59976
H         16.39402       -2.63671        1.29789
H         12.58481       -2.37933        5.19529
H         10.25076       -2.23970        6.15846
H          9.07810        0.01040        6.52487
H          9.29654        1.42741        4.55027
H          9.87032        2.52968        2.42192
H         10.55273        3.04930        0.12459
H         10.66167       -1.21657        8.27846
H         13.36758       -0.47976        7.02344
H         14.53249        0.26405       12.82716
H         15.98928        3.76471        7.93033
H         16.93699        4.17400       10.84610
H         19.46337        8.29560        6.48986
H         19.50093        5.28892        5.79329
H         20.11087        6.70156        4.75758
