114

C         -3.09218        0.69330        4.00016
C         -3.41872        1.84139        3.27029
C         -4.46223        1.82760        2.33875
C         -5.22447        0.67593        2.14480
C         -4.94339       -0.44880        2.91126
C         -3.84793       -0.45980        3.82036
C         -3.69704       -1.85103        4.37667
C         -3.00723       -2.22837        5.47885
C         -2.25788       -1.31723        6.27438
N         -1.64633       -0.57836        6.92811
C         -3.04208       -3.56884        5.95561
N         -3.07565       -4.66950        6.32016
C         -4.59153       -2.70309        3.53067
C         -5.60301       -1.78502        2.95618
C         -6.92655       -2.02009        2.79673
C         -7.52320       -3.24880        3.20875
N         -8.01585       -4.23284        3.57041
C         -7.83451       -1.01810        2.35530
N         -8.57329       -0.20189        1.98416
C         -4.30166       -3.95019        3.09989
C         -4.93360       -4.69753        2.01394
C         -5.53203       -5.87735        2.26024
C         -6.14598       -6.70082        1.20674
C         -6.38366       -8.02907        1.39245
C         -6.97330       -8.84333        0.37441
N         -7.44562       -9.47625       -0.47415
C         -5.99155       -8.70989        2.58122
N         -5.65668       -9.26095        3.54694
C         -6.56078       -6.03178       -0.03831
C         -6.01912       -4.88114       -0.47631
S         -4.74010       -4.05225        0.40364
C         -6.32595       -4.31901       -1.81008
C         -6.01770       -5.05322       -2.92271
C         -5.76933       -4.33952       -4.17913
C         -5.05101       -4.80442       -5.23908
C         -5.40715       -5.90832       -6.24271
C         -4.18970       -6.74055       -6.73597
N         -4.49568       -7.74169       -7.76362
C         -6.55755       -6.85088       -5.78360
N         -7.86768       -6.21607       -5.62314
C         -4.08526       -3.72406       -5.45723
C         -2.78783       -3.79731       -5.79678
C         -1.84789       -2.60547       -5.67708
C         -2.52300       -1.32258       -5.20158
C         -3.80859       -1.26892       -4.80892
C         -4.53948       -2.50275       -4.80083
C         -5.57728       -2.87772       -4.04638
C         -6.34557       -2.17183       -3.05823
C         -6.72852       -2.89171       -1.98474
C         -1.18751       -2.37833       -7.00699
C         -0.01273       -2.92581       -7.35865
C          0.59637       -2.73421       -8.65757
C         -0.03229       -3.12743       -9.77885
C          0.53654       -2.95650      -11.12152
C          0.05250       -3.66119      -12.18139
C          0.55632       -3.48029      -13.50586
N          0.98584       -3.33160      -14.57602
C         -0.95521       -4.66308      -12.02553
N         -1.76707       -5.47784      -11.87571
C          1.54900       -1.90159      -11.29384
C          2.25212       -1.38552      -10.26807
S          2.18267       -2.02532       -8.64613
C          3.19116       -0.29649      -10.49476
C          3.16962        0.94004       -9.95336
C          4.35474        1.84323       -9.91093
C          5.18150        2.15696      -10.93547
C          5.00465        1.59668      -12.23340
N          4.84250        1.12202      -13.27871
C          6.22028        3.12244      -10.81880
N          7.06834        3.90801      -10.72452
C          4.32538        2.45557       -8.54225
C          3.04639        2.21419       -7.96511
C          2.78045        2.58956       -6.65332
C          3.77437        3.24596       -5.92561
C          5.02796        3.49621       -6.49463
C          5.31633        3.08831       -7.80035
C          2.20715        1.48001       -8.96125
C          0.85776        1.52836       -9.06263
C          0.04451        2.21145       -8.11605
N         -0.62191        2.77220       -7.34721
C          0.16075        1.01661      -10.19460
N         -0.42354        0.62407      -11.11814
H         -2.24235        0.74683        4.67126
H         -2.84054        2.75315        3.41242
H         -4.67835        2.72222        1.75742
H         -6.00541        0.68940        1.39117
H         -3.42819       -4.47347        3.48987
H         -5.59634       -6.22527        3.29217
H         -7.32895       -6.50402       -0.64742
H         -5.61415       -6.05774       -2.84954
H         -5.78063       -5.37582       -7.13370
H         -3.69721       -7.23200       -5.89176
H         -3.46308       -6.07282       -7.20609
H         -5.11314       -8.46545       -7.40248
H         -3.64341       -8.22247       -8.04942
H         -6.27005       -7.34982       -4.85203
H         -6.72148       -7.64044       -6.52177
H         -7.80717       -5.41148       -5.00443
H         -8.50694       -6.87419       -5.18042
H         -2.32425       -4.74245       -6.05354
H         -1.08511       -2.85841       -4.92504
H         -1.91758       -0.42194       -5.15556
H         -4.26702       -0.35989       -4.44036
H         -6.61412       -1.13291       -3.20802
H         -7.32040       -2.43027       -1.20098
H         -1.73624       -1.75527       -7.71023
H          0.53203       -3.55840       -6.65897
H         -1.02172       -3.57471       -9.68958
H          1.67784       -1.46718      -12.28517
H          4.04653       -0.62315      -11.08623
H          1.83821        2.37262       -6.16079
H          3.57890        3.55152       -4.89935
H          5.79421        3.99600       -5.90437
H          6.31880        3.25777       -8.17878
