97

C          2.71084        0.38550        0.20693
C          2.23432       -0.82318       -0.16791
C          3.04241       -1.99512       -0.13908
N          3.71433       -2.94094       -0.11690
C          0.91785       -0.98077       -0.69449
N         -0.15952       -1.09830       -1.10677
C          4.09212        0.71085        0.67605
C          4.31265        2.07416        0.43488
C          5.41577        2.77768        0.88094
C          6.37218        2.08034        1.61703
C          6.21352        0.68088        1.84263
C          5.06379        0.00229        1.36736
C          7.20473        0.00841        2.57325
C          8.30527        0.69587        3.09379
C          8.43321        2.06788        2.89744
C          7.47388        2.75681        2.15864
C          3.13817        2.66792       -0.20319
O          3.11492        3.70059       -0.83584
C          2.03481        1.69271        0.05768
C          0.77896        2.04422        0.38897
C          0.34711        3.39937        0.57065
C          1.02753        4.50653        1.04404
C          0.22804        5.68102        1.15050
Cl         0.96464        7.14160        1.67817
C         -1.10330        5.44928        0.84143
S         -1.28902        3.82315        0.28290
C         -2.26280        6.32211        0.99168
C         -3.43748        6.38835        0.26006
Cl        -3.87696        5.47405       -1.12675
C         -4.36199        7.34587        0.77904
C         -3.92109        8.00060        1.91625
S         -2.36208        7.41266        2.32740
C         -4.63209        9.00579        2.75578
C         -4.03278       10.09589        3.42996
C         -4.79041       11.04137        4.22853
N         -4.13776       12.05571        4.84512
C         -2.79961       12.15440        4.71021
C         -2.08872       11.26490        3.95547
N         -2.69693       10.25500        3.30932
C         -6.19669       10.95359        4.39071
C         -6.83181        9.85052        3.74637
C         -6.04316        8.87582        2.91082
N         -6.82399        7.91777        2.37545
S         -8.37452        8.19890        2.85361
N         -8.13488        9.52009        3.80197
C         -7.00088       11.90192        5.21477
C         -6.64489       12.58443        6.36383
C         -7.70148       13.37598        6.92097
Cl        -7.40138       14.25231        8.36920
C         -8.88307       13.29700        6.19539
S         -8.59181       12.37774        4.76448
C        -10.19732       13.89919        6.43577
C        -11.46925       13.42856        6.12109
Cl       -11.89335       11.94033        5.36966
C        -12.51697       14.32182        6.51236
C        -12.04844       15.48190        7.08867
S        -10.33879       15.44793        7.19421
C        -12.78076       16.57943        7.62669
C        -13.10089       17.68763        6.93363
C        -13.75591       18.94064        7.40152
C        -14.63416       19.07846        8.42050
C        -15.26834       20.31377        8.74570
N        -15.78092       21.31463        9.01298
C        -15.04525       17.97849        9.23897
N        -15.37707       17.08352        9.89742
C        -13.39370       20.00235        6.40681
C        -12.79441       19.38343        5.30129
C        -12.66550       17.93639        5.51550
O        -12.29227       17.14148        4.67851
C        -12.34701       20.06919        4.18178
C        -12.48781       21.45922        4.15437
C        -13.07687       22.12906        5.26094
C        -13.51845       21.38956        6.38545
C        -13.20596       23.52747        5.20935
C        -12.76432       24.25016        4.09736
C        -12.18266       23.58814        3.02055
C        -12.04487       22.20062        3.04861
H          5.48713        3.84759        0.70533
H          4.93991       -1.05118        1.60259
H          7.12829       -1.06225        2.75234
H          9.06151        0.15891        3.66119
H          9.28110        2.60332        3.31787
H          7.58944        3.83039        2.01965
H          0.05323        1.28101        0.66411
H          2.07463        4.49461        1.31973
H         -5.33591        7.51654        0.33586
H         -2.31924       12.97519        5.23008
H         -1.01250       11.32711        3.84284
H         -5.66014       12.51269        6.81124
H        -13.57166       14.11896        6.36385
H        -13.03225       16.47418        8.67604
H        -11.88728       19.52503        3.36117
H        -13.93852       21.94082        7.22087
H        -13.65944       24.07201        6.03607
H        -12.87445       25.33180        4.07188
H        -11.83496       24.15058        2.15689
H        -11.58684       21.70196        2.19641
