89

C         -4.51412        3.40726        4.17064
C         -4.68336        2.09065        3.88181
C         -4.84715        1.08325        4.87265
N         -4.98840        0.24714        5.67359
C         -4.75901        1.58753        2.55186
N         -4.82521        1.16080        1.47488
C         -4.53894        4.01643        5.54678
C         -4.54368        5.40479        5.41413
C         -4.56037        6.30482        6.47499
C         -4.63020        5.77830        7.77922
C         -4.65083        4.38512        7.93722
C         -4.58364        3.48776        6.83511
S         -4.78033        3.95836        9.60872
C         -4.81509        5.57704       10.08764
C         -4.70691        6.45485        9.04348
Br        -4.99237        6.11911       11.87194
C         -4.58928        5.79798        4.00797
O         -4.85278        6.92056        3.62768
C         -4.38185        4.54416        3.20470
C         -4.09618        4.55844        1.88868
C         -3.94859        5.72927        1.08722
O         -4.53192        5.83523       -0.18131
C         -3.26647        6.90626        1.26382
C         -2.42432        7.60109        2.19307
O         -1.90235        7.16685        3.20597
N         -2.26808        8.85569        1.63520
C         -2.85849        8.99687        0.39608
O         -2.82563        9.96491       -0.34155
C         -3.50120        7.74058        0.17221
C         -4.26080        7.07996       -0.75279
C         -4.68036        7.50533       -2.03984
C         -5.76019        6.98845       -2.64667
C         -6.17087        7.39364       -3.98353
C         -5.49864        7.12551       -5.11401
C         -5.86608        7.54274       -6.44939
C         -5.10596        6.99895       -7.41624
C         -4.15219        6.03086       -6.90919
S         -4.07268        6.13300       -5.15196
C         -3.43357        5.13377       -7.60578
C         -3.23351        5.04306       -9.03800
C         -2.28938        4.14992       -9.38442
C         -1.69938        3.46912       -8.24960
S         -2.61781        3.79230       -6.81452
C         -0.58778        2.71942       -8.27633
C          0.03449        2.01870       -7.16374
C          0.43297        2.48695       -5.95732
C          0.36756        3.93669       -5.52682
C          0.99586        1.62444       -4.83894
N          1.22172        0.25071       -5.26033
C          1.76377       -0.72284       -4.44724
C          1.78567       -0.78837       -3.11104
C          2.34346       -1.92114       -2.47284
O          3.43202       -2.63992       -2.96139
C          1.97726       -2.55233       -1.31813
C          1.02193       -2.48868       -0.25735
O          0.15039       -1.65868       -0.08053
N          1.32490       -3.58440        0.52869
C          2.38884       -4.33327        0.06699
O          2.86348       -5.34120        0.56275
C          2.80010       -3.66204       -1.12323
C          3.73187       -3.71484       -2.12496
C          4.79888       -4.62186       -2.34348
C          5.84425       -4.27579       -3.10399
H         -4.54505        7.37581        6.29214
H         -4.59392        2.42574        7.04705
H         -4.70551        7.53271        9.15516
H         -3.97320        3.64501        1.32073
H         -1.71731        9.58024        2.06071
H         -4.09030        8.27650       -2.53122
H         -6.37899        6.24142       -2.15514
H         -7.11873        7.92233       -4.03197
H         -6.68881        8.21785       -6.63929
H         -5.25812        7.18070       -8.47065
H         -3.74121        5.67800       -9.74947
H         -1.96589        3.96918      -10.40003
H         -0.10521        2.53300       -9.23357
H          0.19198        0.96999       -7.40733
H          0.09216        4.62270       -6.33039
H          1.34552        4.27027       -5.16480
H         -0.34899        4.05297       -4.70454
H          0.30257        1.64846       -3.98933
H          1.95255        2.04999       -4.51073
H          0.40635       -0.13318       -5.73553
H          2.16678       -1.53979       -5.04674
H          1.30688       -0.02922       -2.50253
H          0.81456       -3.81624        1.36283
H          4.76755       -5.59695       -1.86325
H          5.91502       -3.29730       -3.57372
H          6.66831       -4.96320       -3.26044
