86

C          8.44961        4.18961        8.99994
C          7.77055        3.16075        9.51027
C          7.91604        2.63812       10.84168
C          7.17234        1.54548       11.06730
C          6.40430        1.10930        9.91126
S          6.59402        2.27054        8.59176
C          5.71969       -0.04510        9.80086
C          5.58700       -1.07257       10.81827
C          5.10800       -2.23577       10.35272
C          4.82159       -2.21050        8.93532
S          4.94858       -0.58188        8.31254
C          4.54328       -3.29920        8.20135
C          4.34568       -3.24054        6.79091
S          2.74693       -3.14888        6.17094
C          3.30175       -3.02840        4.56381
C          4.67703       -3.10593        4.45754
C          5.41584       -3.03026        3.16062
C          5.27552       -3.24607        5.75991
C          6.68739       -3.31528        6.00004
C          7.40729       -4.44629        5.93540
C          8.83695       -4.45921        6.14968
C          9.66970       -5.12673        5.33650
C         11.08261       -5.05365        5.47714
S         12.07605       -5.09938        4.04088
C         13.54938       -4.89159        4.91166
C         13.30085       -4.82906        6.25436
C         11.92128       -4.94041        6.55795
C         11.76399       -4.89426        7.97083
C         12.97334       -4.73478        8.56600
C         14.09337       -4.67565        7.50799
C         13.08493       -4.64845        9.98352
S         13.39002       -6.09362       10.85818
C         13.40724       -5.27391       12.34362
C         13.20751       -3.91121       12.22303
C         13.22843       -3.00776       13.41403
C         13.00312       -3.54253       10.83332
C         12.77272       -2.22204       10.29747
C         12.49537       -1.08826       10.95984
C         12.29734        0.18675       10.31292
C         13.21760        0.77125        9.53217
C         13.02006        2.04877        8.88430
C         12.76557        3.22986        9.46708
C         12.56302        4.45186        8.72901
C         12.33719        5.51741        9.50708
C         12.35402        5.22948       10.93078
S         12.65998        3.51239       11.18834
C         12.16710        6.12414       11.92247
C         11.90226        7.53945       11.74299
C         11.76941        8.22074       12.89364
C         11.92299        7.39455       14.06183
S         12.21674        5.73064       13.64377
C         11.85367        7.82662       15.32296
H          9.19233        4.72131        9.58261
H          8.28749        4.51816        7.97790
H          8.57734        3.08272       11.57234
H          7.17904        1.01540       12.00847
H          5.87726       -0.92667       11.84870
H          4.97610       -3.12131       10.95908
H          4.50778       -4.28117        8.66222
H          2.58541       -2.90585        3.76316
H          4.72400       -2.93639        2.31615
H          6.01265       -3.93403        3.00330
H          6.08103       -2.16088        3.14538
H          7.18353       -2.37018        6.21547
H          6.92647       -5.39103        5.69046
H          9.21243       -3.84510        6.96509
H          9.26876       -5.66071        4.47737
H         14.49169       -4.83595        4.39057
H         10.81712       -4.98909        8.48423
H         14.80430       -5.49626        7.63763
H         14.60976       -3.71152        7.53936
H         13.58101       -5.82973       13.25359
H         13.51559       -3.55016       14.32137
H         12.23504       -2.58464       13.59433
H         13.95487       -2.20054       13.27807
H         12.81400       -2.13771        9.21114
H         12.36734       -1.05150       12.03325
H         11.35806        0.68816       10.53911
H         14.16060        0.27227        9.31817
H         13.12276        2.00434        7.80130
H         12.58689        4.49095        7.64842
H         12.16378        6.50470        9.10211
H         11.81612        8.01348       10.77811
H         11.57155        9.28016       12.94803
H         11.66977        8.86980       15.55579
H         11.98281        7.14855       16.16082
