98

C          6.94906       -3.33239        7.77584
C          6.43124       -2.97456        6.59895
C          6.18735       -1.62176        6.17966
C          5.68615       -1.53349        4.94100
C          5.49076       -2.81904        4.28522
S          5.97150       -4.12451        5.37460
C          5.01974       -3.00115        3.03567
C          4.64228       -1.94662        2.11341
C          4.20350       -2.38590        0.92768
C          4.18210       -3.82689        0.81015
S          4.77777       -4.57205        2.27540
C          3.77145       -4.44359       -0.30817
C          3.69833       -5.85007       -0.48613
S          3.86929       -6.50079       -2.08890
C          3.62406       -8.07917       -1.47830
C          3.41842       -8.01394       -0.11985
N          3.45700       -6.76077        0.43475
C          3.14824       -9.14082        0.70302
C          2.94642       -9.10106        2.03342
C          2.65531      -10.26306        2.81841
S          2.52901      -11.81930        2.09327
C          2.17988      -12.61925        3.55711
C          2.18982      -11.72468        4.61068
C          2.43570      -10.36689        4.18820
C          2.43240       -9.25990        5.21798
C          1.00375       -8.75630        5.42647
O          0.17867       -9.24154        6.18973
O          0.76857       -7.72438        4.56351
C         -0.60363       -7.41619        4.33082
C          3.05643       -9.70318        6.55547
C          2.91252      -11.18636        6.94196
C          1.99300      -12.03011        6.06363
C          1.98021      -14.02586        3.49202
C          1.14548      -14.67262        4.31733
C          0.93695      -16.10437        4.29436
C          1.86652      -17.05139        4.49045
C          1.60535      -18.47060        4.46202
C          2.70981      -19.22375        4.57488
C          3.93337      -18.44937        4.70149
S          3.54685      -16.73494        4.81658
C          5.19528      -18.91736        4.70327
C          5.60904      -20.30260        4.59868
C          6.93886      -20.46974        4.56617
C          7.68059      -19.23052        4.63114
S          6.61102      -17.87017        4.79378
C          9.01709      -19.15345        4.55414
C          9.81807      -17.93801        4.56833
C         11.15354      -17.85900        4.45505
C         12.01738      -16.66239        4.31848
C         11.80702      -15.43257        4.84616
C         12.75856      -14.37698        4.73708
N         13.53286      -13.52607        4.64340
C         10.65520      -15.10755        5.62153
N          9.72861      -14.83081        6.25946
C         13.26189      -17.12555        3.62969
C         13.26508      -18.52092        3.62446
C         12.03375      -19.04913        4.20623
O         11.81369      -20.22595        4.40458
C         14.26210      -19.30433        3.05836
C         15.32902      -18.63920        2.42212
C         15.33069      -17.23583        2.39923
C         14.30514      -16.45793        2.99846
S         16.71028      -16.63493        1.54844
C         17.27102      -18.19371        1.22558
C         16.46723      -19.17780        1.73322
Br        18.83746      -18.54195        0.26040
H          7.22911       -2.59546        8.52049
H          7.11283       -4.37565        8.02727
H          6.39311       -0.76783        6.80958
H          5.44556       -0.58849        4.47677
H          4.71234       -0.89568        2.35101
H          3.88777       -1.73220        0.12621
H          3.45889       -3.83752       -1.15312
H          3.62991       -8.94616       -2.12346
H          3.10053      -10.08485        0.17042
H          3.00487       -8.14025        2.54182
H          3.02506       -8.40532        4.86873
H         -0.90267       -6.55460        4.93290
H         -1.26329       -8.26744        4.52409
H         -0.69476       -7.15690        3.27251
H          2.68056       -9.08137        7.37755
H          4.13403       -9.49418        6.50284
H          3.91440      -11.63703        6.91357
H          2.58449      -11.26807        7.98506
H          0.94355      -11.85772        6.32827
H          2.21224      -13.08200        6.27568
H          2.52705      -14.57109        2.72421
H          0.54482      -14.13559        5.04386
H         -0.09739      -16.39461        4.13511
H          0.60879      -18.87326        4.34577
H          2.69031      -20.30402        4.55398
H          4.91199      -21.12652        4.54654
H          7.42485      -21.43275        4.48630
H          9.55086      -20.09444        4.44986
H          9.23729      -17.02058        4.62007
H         14.19367      -20.38886        3.07903
H         14.35623      -15.37826        2.91511
H         16.66105      -20.23788        1.62134
