98

C         -1.12174        4.11524        4.73232
C         -2.39045        4.57358        4.66920
C         -2.87446        5.57130        5.55862
N         -3.24828        6.40009        6.27895
C         -3.33041        4.02918        3.74064
N         -4.09758        3.57392        3.00205
C         -0.10997        4.41723        5.76304
C          0.68360        3.26925        5.92136
C          1.74344        3.21409        6.80478
C          2.10697        4.39968        7.45983
C          1.39026        5.60880        7.20728
C          0.25152        5.60062        6.38303
C          1.86499        6.80997        7.75266
C          3.00504        6.82495        8.55687
C          3.66714        5.63643        8.85195
C          3.21985        4.43076        8.30986
C          0.38357        2.29732        4.83636
O          0.86685        1.19927        4.67126
C         -0.52475        3.06022        3.91420
C         -0.27954        3.00338        2.58970
C         -0.57096        4.06961        1.67271
C         -0.86475        4.00303        0.30305
C         -1.13718        5.28525       -0.23567
C         -1.01647        6.26111        0.72222
S         -0.41934        5.74873        2.16803
C         -1.43446        7.49341        0.19511
C         -1.79657        7.31360       -1.11726
C         -1.56267        5.91442       -1.48896
C         -1.65313        5.35835       -2.71141
C         -2.03640        6.12294       -3.84674
N         -2.34700        6.76491       -4.76231
C         -1.31843        3.99515       -2.93274
N         -1.03005        2.88569       -3.10671
C         -2.30720        8.50670       -1.67337
C         -2.33009        9.53669       -0.72780
S         -1.66469        9.01813        0.79660
C         -2.83170       10.88597       -0.86267
N         -2.76521       11.75218        0.13136
C         -3.32468       12.92063       -0.27160
C         -3.81289       12.98246       -1.54220
S         -3.57983       11.45519       -2.32379
N         -4.35753       14.16203       -1.94861
C         -4.30487       15.01189       -0.93797
S         -3.55886       14.43564        0.52061
C         -4.80882       16.35868       -1.06366
C         -4.89745       17.09931       -2.24445
C         -5.45077       18.37356       -2.00043
C         -5.76527       18.54282       -0.66914
S         -5.42413       17.24281        0.30016
C         -6.30419       19.83165       -0.48262
C         -6.32675       20.47401       -1.69632
C         -5.79636       19.59302       -2.73304
C         -5.65236       19.85313       -4.04641
C         -6.01806       21.10598       -4.61268
N         -6.29386       22.13488       -5.07797
C         -5.10021       18.89348       -4.93862
N         -4.63736       18.12047       -5.66639
C         -6.81975       21.78435       -1.57847
C         -7.17174       22.09793       -0.26277
S         -6.86520       20.73307        0.79376
C         -7.63578       23.31794        0.32475
C         -8.40511       24.23969       -0.28101
C         -8.76797       25.61072        0.17395
C         -8.96596       26.02615        1.44913
C         -9.44369       27.33036        1.76978
N         -9.83247       28.38959        2.03220
C         -8.78194       25.16970        2.57335
N         -8.62066       24.47294        3.48688
C         -9.07447       26.39636       -1.06419
C         -9.16868       25.49815       -2.13124
C         -8.93808       24.12736       -1.67920
O         -9.21246       23.13726       -2.32049
C         -9.43070       25.86449       -3.44031
C         -9.63899       27.21482       -3.71065
C         -9.56405       28.16776       -2.65575
C         -9.25884       27.74762       -1.33674
C         -9.80835       29.51670       -2.95897
C        -10.11662       29.91532       -4.26322
C        -10.17186       28.97672       -5.28959
C         -9.92968       27.63283       -5.01557
H          2.32585        2.30295        6.90327
H         -0.27632        6.52834        6.17628
H          1.36774        7.75345        7.53401
H          3.37775        7.76715        8.95133
H          4.54709        5.64952        9.49018
H          3.76651        3.51817        8.53836
H          0.30784        2.17352        2.19514
H         -0.92341        3.06114       -0.23080
H         -2.67724        8.62769       -2.68395
H         -4.56356       16.70613       -3.19874
H         -6.91168       22.48644       -2.39559
H         -7.25293       23.50162        1.32487
H         -9.47063       25.10800       -4.21940
H         -9.17646       28.50671       -0.56387
H         -9.77514       30.27420       -2.17804
H        -10.31700       30.96216       -4.47865
H        -10.40924       29.28736       -6.30402
H         -9.97888       26.91169       -5.82962
