112

C          5.33147       -7.31938       -4.68262
C          5.31386       -8.15403       -5.76872
S          6.32177       -7.51808       -7.02385
C          6.73879       -6.14924       -6.09305
Cl         7.80305       -4.98030       -6.75232
C          6.12602       -6.15837       -4.87555
C          6.09056       -5.26090       -3.74808
O          6.67639       -4.20790       -3.59772
C          5.07930       -5.93643       -2.82271
C          4.76059       -7.30684       -3.35988
C          4.23475       -8.36216       -2.69276
C          4.06540       -9.63574       -3.30782
N          3.93079      -10.67048       -3.81546
C          3.90199       -8.31031       -1.30942
N          3.65451       -8.26397       -0.17708
C          4.48673       -5.30222       -1.79487
C          4.83297       -4.00430       -1.18249
C          5.78922       -4.05970       -0.14491
C          5.99962       -2.92076        0.60578
C          5.32024       -1.75106        0.34879
C          5.69998       -0.78004        1.37293
O          5.23906        0.34265        1.44827
N          6.60275       -1.40745        2.18697
C          6.83104       -2.69730        1.78938
O          7.55105       -3.54215        2.28523
C          7.18261       -0.80024        3.36961
C          6.33496       -1.04071        4.61054
C          4.40760       -1.64427       -0.68258
C          4.12754       -2.79119       -1.45622
C          3.11536       -2.70622       -2.53260
C          2.03432       -1.90868       -2.48311
C          1.06484       -1.78889       -3.53554
N          0.80004       -0.58126       -4.18843
C          1.49313        0.67549       -3.97483
C          2.71710        0.82160       -4.86612
C         -0.18678       -0.73243       -5.18478
O         -0.65064        0.07786       -5.96080
C         -0.53502       -2.15872       -5.07777
C          0.26895       -2.73959       -4.03448
C         -0.09047       -4.16535       -3.93073
O          0.38314       -4.99179       -3.17687
N         -1.06895       -4.31136       -4.93970
C         -1.68532       -5.58799       -5.24239
C         -2.93475       -5.83949       -4.41472
C         -1.30577       -3.10820       -5.60877
C         -2.22367       -2.98191       -6.70716
C         -1.85088       -2.55018       -7.92263
C         -2.78632       -2.46415       -9.05360
C         -2.93027       -3.61944       -9.84961
C         -3.79184       -3.55710      -10.92685
C         -4.48278       -2.40540      -11.23295
C         -5.28878       -2.66258      -12.42096
O         -6.01454       -1.83935      -12.94281
N         -5.05158       -3.96182      -12.77115
C         -4.15567       -4.56144      -11.92702
O         -3.71052       -5.69242      -11.94859
C         -5.62867       -4.59287      -13.94035
C         -4.74256       -4.41217      -15.16262
C         -4.36485       -1.25547      -10.48306
C         -3.52478       -1.27665       -9.35272
C         -3.40851       -0.05563       -8.52487
C         -4.43023        0.79664       -8.33571
C         -4.35299        1.95386       -7.47241
C         -5.33534        2.83611       -7.22118
C         -5.19378        3.62923       -5.92705
O         -4.18406        3.91722       -5.31578
C         -6.56898        3.85660       -5.57261
C         -7.20621        4.36111       -4.47991
S         -8.90245        4.27848       -4.64846
C         -8.78838        3.56791       -6.22496
C         -7.47466        3.42858       -6.58041
C         -6.73290        2.96480       -7.72428
C         -7.17301        2.90588       -9.00447
C         -8.54498        3.10848       -9.33584
N         -9.66442        3.26344       -9.58969
C         -6.28703        2.74707      -10.10561
N         -5.57194        2.62764      -11.01348
Cl        -6.52470        4.99760       -3.04457
H          4.79754       -9.09051       -5.93605
H          3.66243       -5.76126       -1.25589
H          6.30665       -4.97972        0.11373
H          7.27567        0.27751        3.19853
H          8.18315       -1.21702        3.52533
H          5.31269       -0.67345        4.47191
H          6.76931       -0.52358        5.47234
H          6.27733       -2.10808        4.84793
H          3.90953       -0.69328       -0.84543
H          3.29638       -3.32493       -3.40833
H          1.84033       -1.27805       -1.61834
H          1.77562        0.76583       -2.92122
H          0.79691        1.49334       -4.19407
H          3.40973       -0.01600       -4.73614
H          3.25111        1.74667       -4.62589
H          2.43228        0.85957       -5.92283
H         -0.95614       -6.37911       -5.03293
H         -1.91772       -5.63906       -6.31125
H         -2.69615       -5.88875       -3.34729
H         -3.39431       -6.78995       -4.70467
H         -3.67403       -5.04496       -4.55678
H         -3.25241       -3.27816       -6.51760
H         -0.82410       -2.26269       -8.14056
H         -2.38382       -4.53432       -9.63779
H         -6.61059       -4.14704      -14.13367
H         -5.76337       -5.65947      -13.73514
H         -4.60823       -3.35090      -15.39761
H         -5.18952       -4.90186      -16.03318
H         -3.75050       -4.84439      -14.99605
H         -4.91500       -0.37035      -10.78867
H         -2.44939        0.11320       -8.03749
H         -5.39028        0.57711       -8.78943
H         -3.43259        2.02033       -6.88441
H         -9.69596        3.31282       -6.75642
