80

C          5.68050        0.45877        5.19225
C          5.86880        1.44565        6.12302
S          5.10622        2.91429        5.60055
C          4.52912        2.18936        4.16964
Cl         3.65382        3.12405        3.03230
C          4.88868        0.87862        4.09363
C          4.66262       -0.17056        3.14242
O          3.80502       -0.23177        2.28533
C          5.65632       -1.24210        3.59322
C          6.05757       -0.92467        5.01910
C          6.54215       -1.76212        5.96395
C          6.81700       -1.31891        7.28925
N          7.04159       -0.94825        8.36422
C          6.75415       -3.14813        5.72478
N          6.93256       -4.27450        5.51781
C          6.18312       -2.17451        2.77317
C          5.90692       -2.30674        1.37452
C          5.68354       -1.37258        0.38996
F          5.74457       -0.08205        0.58828
C          5.37612       -1.92044       -0.86515
F          5.02107       -1.15465       -1.85992
C          5.53420       -3.29077       -0.95376
S          5.94963       -3.86885        0.63753
C          5.44381       -4.18281       -2.07128
N          5.78194       -3.87348       -3.40525
C          6.30408       -2.64071       -3.95851
C          7.72454       -2.32250       -3.52340
C          5.56251       -4.96635       -4.26455
O          5.71927       -5.04705       -5.46584
C          5.10370       -6.01838       -3.35296
C          5.03692       -5.46464       -2.02054
C          4.53895       -6.55222       -1.14235
O          4.30261       -6.50270        0.04715
N          4.39763       -7.64558       -2.02405
C          3.90470       -8.93762       -1.57651
C          2.39240       -9.05589       -1.70082
C          4.73841       -7.30173       -3.33482
C          4.65262       -8.23328       -4.43184
C          5.38394       -8.18014       -5.55742
C          5.30179       -9.19245       -6.55382
S          6.62655       -9.42202       -7.62736
C          5.86692      -10.72517       -8.42795
C          6.60218      -11.42346       -9.46167
O          6.13845      -12.31142      -10.17451
C          4.58755      -10.93121       -7.94972
C          4.29645      -10.09955       -6.83415
C          3.70503      -11.93893       -8.43746
C          2.83985      -11.84167       -9.45921
C          2.38116      -13.17968      -10.03138
O          2.35409      -14.26464       -9.48548
C          2.04174      -12.82972      -11.38109
C          1.63865      -13.52515      -12.47933
S          1.42447      -12.50470      -13.82825
C          1.87039      -11.09661      -12.92476
C          2.15549      -11.43343      -11.63091
C          2.49181      -10.74131      -10.40550
C          2.29168       -9.42328      -10.17043
C          1.96467       -8.51515      -11.21812
N          1.70699       -7.77796      -12.07689
C          2.22141       -8.85137       -8.87198
N          2.05396       -8.33026       -7.84530
Cl         1.34008      -15.20391      -12.63261
H          6.40131        1.44465        7.06434
H          6.92230       -2.87619        3.15004
H          5.61457       -1.82652       -3.74332
H          6.30743       -2.71588       -5.05390
H          7.85703       -2.40088       -2.44200
H          7.98665       -1.30350       -3.82629
H          8.43815       -3.00613       -3.99589
H          4.18465       -9.07838       -0.52592
H          4.39991       -9.73346       -2.14336
H          1.89010       -8.43710       -0.95014
H          2.07957      -10.09375       -1.54679
H          2.03933       -8.73628       -2.68642
H          3.96093       -9.05845       -4.29084
H          6.09550       -7.37730       -5.72610
H          7.65493      -11.11754       -9.60096
H          3.35762      -10.12552       -6.29128
H          3.87102      -12.92454       -7.99398
H          1.86905      -10.13587      -13.42335
