75

C          1.47672       -0.11325       -2.32208
C          0.27900        0.49001       -2.60069
S         -1.02616       -0.41472       -1.90560
C          0.03410       -1.58016       -1.25704
Cl        -0.59513       -2.90721       -0.37591
C          1.33189       -1.29667       -1.55569
C          2.58268       -1.93563       -1.27323
O          2.79334       -2.88154       -0.54058
C          3.57670       -1.09047       -2.07431
C          2.87284        0.13138       -2.59888
C          3.41437        1.25000       -3.13201
C          2.61366        2.35617       -3.53879
N          1.95718        3.25168       -3.87848
C          4.81689        1.45006       -3.25946
N          5.96492        1.59080       -3.36178
C          4.82333       -1.52182       -2.33282
C          5.31620       -2.76264       -1.86175
S          6.09698       -2.85795       -0.33196
C          6.32212       -4.54349       -0.62798
N          5.87367       -4.92974       -1.80684
N          5.29285       -3.90343       -2.51772
C          6.97575       -5.32643        0.35554
C          7.63793       -6.43837        0.00606
C          8.33943       -7.22871        0.96098
S          9.75860       -8.03678        0.43852
C         10.05733       -8.75422        1.96620
C          9.10241       -8.33164        2.88819
C          8.08290       -7.50950        2.29516
C          6.89405       -7.06175        3.10271
C          6.54085       -8.05883        4.21675
C          5.43723       -7.49340        5.01061
N          4.56775       -6.99780        5.60649
C          7.76179       -8.35510        5.11588
O          7.40782       -9.44413        5.99400
C          8.40856       -9.78472        6.95024
C          9.03802       -8.72963        4.33058
C         11.19750       -9.68412        2.11187
C         11.90767       -9.84824        3.28685
N         12.90360      -10.74640        3.47555
C         13.19649      -11.53079        2.43121
N         12.63690      -11.43797        1.21643
C         11.64653      -10.51536        1.09505
C         14.21366      -12.54886        2.65443
C         14.37015      -13.75077        2.07694
C         15.72710      -14.40378        2.31043
O         16.55688      -14.13990        3.15854
C         15.79836      -15.35801        1.24009
C         16.74750      -16.22792        0.79733
S         16.21893      -17.08827       -0.57659
C         14.67862      -16.29362       -0.57154
C         14.60716      -15.40606        0.46879
C         13.61438      -14.52998        1.05122
C         12.27295      -14.61100        0.85923
C         11.70754      -15.42413       -0.16015
N         11.24865      -16.08587       -0.99482
C         11.33197      -14.00090        1.73363
N         10.53511      -13.55601        2.45798
Cl        18.30901      -16.52451        1.43551
H          0.04700        1.38717       -3.15814
H          5.51089       -0.99524       -2.98048
H          6.94653       -4.97433        1.37974
H          7.70009       -6.72523       -1.04407
H          6.01944       -6.94241        2.45148
H          7.11759       -6.07455        3.52895
H          6.19354       -9.00044        3.76720
H          7.96549       -7.47052        5.73762
H          8.02766      -10.60485        7.56377
H          8.64122       -8.93132        7.59229
H          9.32192      -10.14258        6.46588
H          9.19327       -9.81320        4.37279
H          9.87886       -8.25478        4.85282
H         11.70675       -9.24895        4.16762
H         11.19376      -10.49747        0.10668
H         14.95681      -12.21013        3.37741
H         13.95382      -16.55989       -1.32933
