68

C         12.35786        3.94001       -3.09254
C         12.98943        5.05248       -3.58164
S         14.21763        5.57904       -2.47897
C         13.86484        4.32626       -1.37791
Cl        14.73670        4.21851        0.09224
C         12.85418        3.53266       -1.82835
C         12.15164        2.40192       -1.29475
O         12.35139        1.80000       -0.25771
C         11.02178        2.20428       -2.31211
C         11.30046        3.05206       -3.51913
C         10.81632        2.93305       -4.77887
C         11.21485        3.81076       -5.82928
N         11.53300        4.53525       -6.68351
C          9.89287        1.91800       -5.16002
N          9.11292        1.11861       -5.46833
C          9.96590        1.52376       -1.82158
C          8.56118        1.37274       -2.26136
C          7.82444        0.19001       -2.04147
C          6.42409        0.06879       -2.39077
N          5.78242       -1.09953       -2.17151
C          6.46328       -2.10975       -1.58819
C          7.78506       -1.97983       -1.23307
N          8.47696       -0.84135       -1.46303
F          8.42861       -2.99548       -0.64071
F          5.81328       -3.25950       -1.36090
C          5.69603        1.14426       -2.94345
C          6.39953        2.36525       -3.15343
C          7.85183        2.48318       -2.78966
N          8.34517        3.71662       -3.00688
S          7.13013        4.62986       -3.65158
N          5.91158        3.52091       -3.63881
C          4.23995        1.10131       -3.13217
S          3.43902        1.84864       -4.46322
C          1.93860        1.57490       -3.64486
N          2.07567        0.80835       -2.58163
N          3.39543        0.52935       -2.29480
C          0.76097        2.21604       -4.12305
C         -0.27517        2.47265       -3.30363
C         -1.44515        3.25663       -3.71736
C         -2.70633        3.06335       -3.18108
N         -3.80611        3.78071       -3.52588
C         -3.61102        4.73620       -4.45276
N         -2.43913        5.02667       -5.02989
C         -1.37936        4.29879       -4.62328
C         -4.76821        5.42678       -5.00559
C         -5.96070        5.68587       -4.45145
C         -7.07258        6.00499       -5.43928
O         -6.97819        6.39758       -6.58543
C         -8.24745        5.64607       -4.69430
C         -9.57463        5.56271       -4.98390
S        -10.47693        5.02328       -3.64095
C         -9.06407        4.90773       -2.64269
C         -7.95400        5.27741       -3.35317
C         -6.54297        5.45146       -3.10298
C         -5.94835        5.61450       -1.89923
C         -6.64447        5.37545       -0.68071
N         -7.22013        5.17023        0.30558
C         -4.64003        6.16809       -1.76242
N         -3.60604        6.67050       -1.63034
Cl       -10.36970        5.90890       -6.46083
H         12.83558        5.61316       -4.49390
H         10.11627        1.01519       -0.86137
H          0.75734        2.55194       -5.15517
H         -0.26342        2.13181       -2.26779
H         -2.88795        2.28712       -2.44042
H         -0.44028        4.60439       -5.07752
H         -4.61399        5.66608       -6.05855
H         -9.17232        4.58281       -1.61650
