107

C          0.50927        0.47522       -0.81466
C          1.12061        1.55178       -1.36342
C          1.35127        1.65580       -2.76386
N          1.53766        1.73084       -3.90713
C          1.70432        2.56709       -0.54978
N          2.23423        3.34717        0.13387
C          0.17575       -0.79581       -1.49254
C          0.30327       -1.82724       -0.54527
C          0.05886       -3.15572       -0.83229
C         -0.41589       -3.46407       -2.11039
C         -0.62650       -2.42528       -3.06755
C         -0.30101       -1.09011       -2.75781
C         -1.19692       -2.75073       -4.30496
C         -1.54290       -4.06920       -4.60522
C         -1.30382       -5.08425       -3.68264
C         -0.74052       -4.78482       -2.44292
C          0.51452       -1.26263        0.80388
O          0.66348       -1.86328        1.84198
C          0.33721        0.21330        0.61374
C         -0.29702        0.87361        1.59440
C         -1.03800        2.06546        1.36837
S         -1.84294        2.83578        2.68541
C         -2.56450        3.91219        1.54359
N         -2.16255        3.70029        0.30758
N         -1.29197        2.64318        0.20891
C         -3.48735        4.88568        1.99144
C         -3.64491        6.05306        1.34344
C         -4.50294        7.09877        1.82161
N         -5.15424        8.03896        1.01767
C         -5.14253        8.14415       -0.42878
C         -6.23124        7.33114       -1.11694
C         -5.88310        8.96048        1.79779
O         -6.57481        9.88914        1.43877
C         -5.59856        8.51859        3.17772
C         -4.74786        7.37675        3.10592
C         -4.44637        6.93944        4.47761
O         -3.77087        5.98074        4.79381
N         -5.11527        7.89178        5.27027
C         -5.09960        7.86466        6.72855
C         -3.79385        7.35709        7.33466
C         -5.82380        8.79351        4.46295
C         -6.60094        9.88846        4.95531
C         -7.63648       10.40478        4.27792
C         -8.45373       11.50706        4.75683
C         -7.94805       12.51807        5.57451
C         -8.80053       13.52536        6.03417
N         -8.21265       14.52868        6.90300
O         -7.24763       15.16334        6.45554
O         -8.68873       14.65218        8.03918
C        -10.15382       13.56469        5.67513
C        -10.61774       12.54808        4.82106
C         -9.78587       11.54086        4.35952
C        -11.07661       14.62458        6.09928
C        -12.37013       14.61592        5.75868
C        -13.27813       15.66057        6.11526
C        -14.60123       15.50974        6.24318
C        -15.61621       16.54501        6.48960
C        -15.43016       17.73250        7.11091
C        -16.48548       18.63893        7.36803
N        -17.35906       19.38832        7.56498
C        -14.16785       18.16845        7.61455
N        -13.13211       18.53380        8.01943
C        -16.92030       15.95222        6.07010
C        -16.74050       14.57725        5.86205
C        -15.33048       14.20861        6.01402
O        -14.89313       13.08339        5.93762
C        -17.75620       13.71001        5.49058
C        -19.03176       14.24071        5.29182
C        -19.24339       15.63933        5.45264
C        -18.17925       16.48554        5.83584
C        -20.52486       16.15849        5.22240
C        -21.58173       15.32230        4.85692
C        -21.37330       13.95392        4.71218
C        -20.10452       13.41506        4.92394
H          0.16457       -3.90976       -0.05775
H         -0.48470       -0.30567       -3.48739
H         -1.39808       -1.97588       -5.04232
H         -2.00361       -4.30300       -5.56166
H         -1.56867       -6.11079       -3.92264
H         -0.57576       -5.59154       -1.73141
H         -0.41428        0.39149        2.56353
H         -4.04275        4.65597        2.89588
H         -3.06784        6.27040        0.44960
H         -4.15557        7.86704       -0.80708
H         -5.29826        9.19902       -0.69048
H         -6.05873        6.25734       -1.00399
H         -6.24296        7.54669       -2.19227
H         -7.22347        7.56211       -0.71419
H         -5.93843        7.25307        7.08064
H         -5.24786        8.88284        7.09826
H         -3.60172        6.30983        7.08523
H         -3.82849        7.41537        8.42605
H         -2.94512        7.95236        6.98179
H         -6.30726       10.30422        5.91093
H         -7.94955        9.99420        3.32048
H         -6.89984       12.52698        5.86002
H        -11.64588       12.49792        4.47824
H        -10.21125       10.78531        3.70116
H        -10.69014       15.42686        6.72383
H        -12.80260       13.81998        5.16730
H        -12.79057       16.62267        6.20670
H        -17.54451       12.65356        5.34443
H        -18.37263       17.54947        5.92363
H        -20.71624       17.22451        5.33007
H        -22.57054       15.74182        4.68836
H        -22.19942       13.30439        4.43284
H        -19.96229       12.34319        4.80054
